.model 10MQ060N D(Is=.1u Rs=.14 Cjo=102p N=1 M=.3 Eg=.69 Xti=2 Iave=1.5 Vpk=60 mfg=International_Rectifier type=Schottky)