.model 1N5371B D(IS=1.54e-17 N=1 XTI=1 Rs=.1 Cjo=10p TT=10n BV=60  IBV=20m NBV=30 Vpk=60 mfg=OnSemi type=Zener)