.model 1N5378B D(IS=1.54e-17 N=1 XTI=1 Rs=.1 Cjo=10p TT=10n BV=100 IBV=12m NBV=48 Vpk=100 mfg=OnSemi type=Zener)