.model 1N5373B D(IS=1.54e-17 N=1 XTI=1 Rs=.1 Cjo=10p TT=10n BV=68  IBV=20m NBV=50 Vpk=68 mfg=OnSemi type=Zener)