.model 1N5369B D(IS=1.54e-17 N=1 XTI=1 Rs=.1 Cjo=10p TT=10n BV=51  IBV=25m NBV=35 Vpk=51 mfg=OnSemi type=Zener)