.model 1N5375B D(IS=1.54e-17 N=1 XTI=1 Rs=.1 Cjo=10p TT=10n BV=82  IBV=15m NBV=35 Vpk=82 mfg=OnSemi type=Zener)