.model 1N750 D(Is=.88f Rs=.25 Cjo=175p M=.55 nbv=1.7 bv=4.7 Vj=.75 Isr=1.86n Nr=2 Ibv=20.245m Ibvl=1.96m Nbvl=15 Tbv1=-21.3u Vpk=4.7 mfg=OnSemi type=Zener)