.model AOT-2015 D(Is=5.961e-10 Rs=1.07 N=6.222 Cjo=.5n Xti=200 Iave=175mA Vpk=5 mfg=AOT type=LED)