.model B520C D(Is=200u Rs=8m Cjo=300p N=1.7 Ikf=2 Isr=200u Nr=2 Iave=5 Vpk=20 mfg=Diodes_Inc. type=Schottky)