.model B560C D(Is=20u Rs=25m Cjo=300p N=1.7 Ikf=10 Isr=100u Nr=2 Iave=5 Vpk=60 mfg=Diodes_Inc. type=Schottky)