.model BAT46WJ D(Is=.1703u N=1.06 Rs=1.3 Cjo=35p Vj=.4 M=.5 Eg=.69 XTI=2 Iave=.25 Vpk=100 mfg=NXP type=Schottky)