.model BZX84C13VLY D(Is=3.3901E-15 N=1.0957 Rs=.20605 Ikf=.13344 Eg=1.09 Cjo=16.259E-12 M=.31466 Vj=.58924 Isr=5.9542E-12 Nr=4.5 Bv=13.02 Ibv=5.0000E-3 Nbv=0.47 Tbv1=0.6900E-3 Vpk=13 mfg=Rohm type=Zener)