.model BZX84C36VLY D(Is=58.655E-18 N=.86934 Rs=122.52E-3 Ikf=2.5385E-3 Eg=1.08 Cjo=8.0788E-12 M=.31777 Vj=.57954 Isr=3.6755E-12 Nr=3.4 Bv=36.17 Ibv=2.0000E-3 Nbv=0.86 Tbv1=0.8300E-3 Vpk=36 mfg=Rohm type=Zener)