.model BZX84C16VLY D(Is=1.8240E-15 N=1.0788 Rs=67.418E-3 Ikf=87.437E-3 Cjo=16.466E-12 M=0.3062 Vj=0.5164 Isr=5.4625E-12 Nr=3.9 Bv=16.02 Ibv=5.0000E-3 Nbv=0.48 Tbv1=0.7300E-3 Nbvl=21 Ibvl=25.000E-12 Vpk=16 mfg=Rohm type=Zener)