.model BZX84B24VLY D(Is=1.0210E-15 N=1.0286 Rs=47.546E-3 Ikf=30.925E-3 Eg=1.13 Cjo=10.998E-12 M=0.3205 Vj=0.5884 Isr=1.6275E-12 Nr=4.95 Bv=24.03 Ibv=5.0000E-3 Nbv=0.95 Tbv1=0.8150E-3 Vpk=24 mfg=Rohm type=Zener)