.model BZX84C12VLY D(Is=831.63E-18 N=1.0547 Rs=64.108E-3 Ikf=63.508E-3 Eg=1.12 Cjo=18.081E-12 M=0.3054 Vj=0.5672 Isr=4.7625E-12 Nr=4.9 Bv=11.94 Ibv=5.0000E-3 Nbv=0.26 Tbv1=0.6900E-3 Nbvl=26 Ibvl=14.000E-12 Vpk=12 mfg=Rohm type=Zener)