.model BZX84C20VLY D(Is=4.2305E-15 N=1.0911 Rs=0.2097 Ikf=2.8601 Eg=1.09 Cjo=13.451E-12 M=0.3002 Vj=0.5424 Isr=1.9275E-12 Nr=4.93 Bv=20.37 Ibv=5.0000E-3 Nbv=0.85 Tbv1=0.7700E-3 Vpk=20 mfg=Rohm type=Zener)