.model BZX84C11VLY D(Is=726.90E-18 N=1.0559 Rs=0.3466 Ikf=27.613 Eg=1.143 Cjo=20.317E-12 M=0.3116 Vj=0.5645 Isr=1.8625E-12 Nr=3.55 Bv=11 Ibv=5.0000E-3 Nbv=0.19 Tbv1=0.6550E-3 Nbvl=22.5 Ibvl=80.000E-12 Vpk=11 mfg=Rohm type=Zener)