.model BZX84B33VLY D(Is=987.24E-18 N=.99429 Rs=4.7638E-3 Ikf=7.5480E-3 Cjo=8.9958E-12 M=.29061 Vj=.53061 Isr=4.6340E-12 Nr=4.000 Bv=33.030 Ibv=2.0000E-3 Nbv=0.7500 Tbv1=0.8700E-3 Nbvl=230.00 Ibvl=17.000E-12 Vpk=33 mfg=Rohm type=Zener)