.model BZX84B30VLY D(Is=216.30E-18 N=0.9864 Rs=0.1173 Ikf=22.326E-3 Eg=1.14 Cjo=9.3111E-12 M=0.3196 Vj=0.5839 Isr=3.4637E-12 Nr=4.98 Bv=29.95 Ibv=2.0000E-3 Nbv=0.47 Tbv1=0.8100E-3 Vpk=30 mfg=Rohm type=Zener)