.model BZX84C18VLY D(Is=2.9987E-15 N=1.0764 Rs=87.256E-3 Ikf=73.873E-3 Eg=1.07 Cjo=14.904E-12 M=0.2958 Vj=0.5089 Isr=2.8625E-12 Nr=4.95 Bv=18.22 Ibv=5.0000E-3 Nbv=0.64 Tbv1=0.7400E-3 Vpk=18 mfg=Rohm type=Zener)