.model BZX84C27VLY D(Is=1.0610E-15 N=1.0160 Rs=73.972E-3 Ikf=15.064E-3 Cjo=10.353E-12 M=.29693 Vj=.60687 Isr=1.8637E-12 Nr=3.6000 Bv=26.950 Ibv=2.0000E-3 Nbv=0.4700 Tbv1=0.8300E-3 Vpk=27 mfg=Rohm type=Zener)