.model BZX84C15VLY D(Is=2.2465E-15 N=1.0876 Rs=.25208 Ikf=7.8615 Cjo=17.614E-12 M=.30986 Vj=.51303 Isr=6.0625E-12 Nr=3.900 Bv=14.990 Ibv=5.0000E-3 Nbv=0.4800 Tbv1=0.7300E-3 Nbvl=20.00 Ibvl=27.000E-12 Vpk=15 mfg=Rohm type=Zener)