.model BZX84B22VLY D(Is=1.5340E-15 N=1.0468 Rs=53.932E-3 Ikf=35.366E-3 Eg=1.13 Cjo=12.433E-12 M=0.2901 Vj=0.5342 Isr=1.9275E-12 Nr=4.95 Bv=22.165 Ibv=5.0000E-3 Nbv=0.95 Tbv1=0.7950E-3 Vpk=22 mfg=Rohm type=Zener)