.model BZX84B10VLY D(Is=47.316E-18 N=0.9886 Rs=0.3032 Ikf=10.116 Eg=1.143 Cjo=22.224E-12 M=0.3135 Vj=0.5509 Isr=2.2625E-12 Nr=3.6 Bv=10.04 Ibv=5.0000E-3 Nbv=0.25 Tbv1=0.6150E-3 Vpk=10 mfg=Rohm type=Zener)