.model BZX84B9V1LY D(Is=836.41E-18 N=1.0613 Rs=0.2949 Ikf=28.681 Eg=1.143 Cjo=24.848E-12 M=0.3196 Vj=0.5309 Isr=7.1625E-12 Nr=4.7 Bv=9.095 Ibv=5.0000E-3 Nbv=0.25 Tbv1=0.5680E-3 Nbvl=11 Ibvl=30.000E-9 Vpk=9.1 mfg=Rohm type=Zener)