.model CDZV7_5B D(Is=2.6370E-16 N=1.0324 Rs=.23141 Ikf=1.1640 Cjo=2.5200E-11 M=.39896 Vj=.76788 Isr=3.4986E-12 Nr=2.6800 Bv=7.4400 Ibv=5.0000E-3 Tt=65.000E-9 Nbv=0.3000 Tbv1=0.4800E-3 Nbvl=14.000 Ibvl=200.00E-9 Vpk=7.5 mfg=Rohm type=Zener)