.model CDZV9_1B D(Is=2.0192E-16 N=1.0271 Rs=.25962 Ikf=1.1336 Cjo=1.9400E-11 M=.37163 Vj=.75692 Isr=1.2130E-12 Nr=2.4700 Bv=9.0400 Ibv=5.0000E-3 Tt=102.00E-9 Nbv=0.2000 Tbv1=0.6000E-3 Nbvl=19.800 Ibvl=2.5000E-10 Vpk=9.1 mfg=Rohm type=Zener)