.model CDZV11B D(Is=2.6919E-16 N=1.0329 Rs=.28166 Ikf=1.2119 Cjo=1.5000E-11 M=.35461 Vj=.75858 Isr=6.3129E-13 Nr=2.8400 Bv=11.000 Ibv=1.0000E-3 Tt=163.00E-9 Nbv=0.5500 Tbv1=0.6700E-3 Nbvl=22.500 Ibvl=1.5000E-11 Vpk=11 mfg=Rohm type=Zener)