.model CDZV12B D(Is=3.4990E-16 N=1.0420 Rs=.26313 Ikf=.87303 Cjo=1.3700E-11 M=.35603 Vj=.75124 Isr=5.1535E-13 Nr=2.8200 Bv=11.930 Ibv=1.0000E-3 Tt=1.8500E-7 Nbv=0.4000 Tbv1=0.7300E-3 Nbvl=26.200 Ibvl=1.0000E-11 Vpk=12 mfg=Rohm type=Zener)