.model CDZV13B D(Is=3.3892E-16 N=1.0385 Rs=.24887 Ikf=.82579 Cjo=1.3400E-11 M=.45658 Vj=.75643 Isr=5.154E-13 Nr=2.7000 Bv=13.220 Ibv=1.0000E-3 Tt=1.8500E-7 Nbv=0.8800 Tbv1=0.7400E-3 Nbvl=39.200 Ibvl=5.000E-12 Vpk=13 mfg=Rohm type=Zener)