.model CDZV18B D(Is=4.3893E-16 N=1.0456 Rs=.23636 Ikf=1.1133 Cjo=1.2300E-11 M=.35741 Vj=.77627 Isr=4.6335E-13 Nr=2.5000 Bv=17.87 Ibv=1.0000E-3 Tt=1.7100E-7 Nbv=0.4600 Tbv1=0.8210E-3 Nbvl=58.400 Ibvl=3.0000E-11 Vpk=18 mfg=Rohm type=Zener)