.model CDZV36B D(Is=8.4106E-15 N=1.1365 Rs=.26630 Ikf=.47397 Cjo=6.8000E-12 M=.31586 Vj=.80868 Isr=7.8934E-13 Nr=2.6500 Bv=35.96 Ibv=1.0000E-3 Tt=2.0500E-7 Nbv=3.0700 Tbv1=0.8700E-3 Nbvl=225.00 Ibvl=2.2000E-12 Vpk=36 mfg=Rohm type=Zener)