.model CDZV22B D(Is=7.8804E-16 N=1.0605 Rs=.26605 Ikf=.81132 Cjo=1.0100E-11 M=.34994 Vj=.79255 Isr=0.5348E-12 Nr=2.6500 Bv=22.050 Ibv=1.0000E-3 Tt=1.8700E-7 Nbv=1.4000 Tbv1=0.8300E-3 Nbvl=125.00 Ibvl=3.5000E-12 Vpk=22 mfg=Rohm type=Zener)