.model DFLS220L D(Is=25u Rs=.047 N=1 Cjo=252p M=.33 Eg=.69 Xti=2 Iave=2 Vpk=20 mfg=Diodes_Inc. type=Schottky)