.model DFLZ33 D(Is=12.5p Rs=.6 N=1.1 Cjo=220p VJ=1 M=.33 tt=50n BV=29 IBV=1e-10 NBV=8 Vpk=33 mfg=Diodes_Inc. type=Zener)