.model EDZV20B D(Is=5.4004E-16 N=1.0500 Rs=.24711 Ikf=1.0080 Cjo=1.1200E-11 M=.32891 Vj=.51639 Isr=0.2831E-12 Nr=2.2500 Bv=20.00 Ibv=1.0000E-3 Tt=1.8200E-7 Nbv=0.8000 Tbv1=0.83E-3 Nbvl=58.400 Ibvl=0.3000E-11 Vpk=20 mfg=Rohm type=Zener)