.model EDZV10B D(Is=2.1786E-16 N=1.0288 Rs=.29371 Ikf=81.809 Cjo=1.7400E-11 M=.37721 Vj=.75462 Isr=6.9376E-13 Nr=2.8000 Bv=9.9500 Ibv=5.0000E-3 Tt=1.2800E-7 Nbv=0.2000 Tbv1=6.3000E-4 Nbvl=18.000 Ibvl=0.1200E-9 Vpk=10 mfg=Rohm type=Zener)