.model EDZV6_8B D(Is=1.7609E-16 N=1.0196 Rs=.26014 Ikf=.94002 Cjo=1.9100E-11 M=.36585 Vj=.76843 Isr=0.3906E-12 Nr=3.2000 Bv=6.7900 Ibv=5.0000E-3 Tt=85.000E-9 Nbv=0.1000 Tbv1=0.4600E-3 Nbvl=11.400 Ibvl=100.00E-9 Vpk=6.8 mfg=Rohm type=Zener)