.model EDZV30B D(Is=2.2137E-15 N=1.0929 Rs=.25495 Ikf=.75706 Cjo=8.0000E-12 M=.30884 Vj=.76074 Isr=4.9426E-13 Nr=2.8600 Bv=29.98 Ibv=1.0000E-3 Tt=1.9000E-7 Nbv=2.4000 Tbv1=0.87900E-3 Nbvl=155.00 Ibvl=2.0000E-12 Vpk=30 mfg=Rohm type=Zener)