.model EDZV16B D(Is=2.9649E-16 N=1.0357 Rs=.21510 Ikf=55.214 Cjo=1.3885E-11 M=.33221 Vj=.53071 Isr=5.2147E-13 Nr=2.6867 Bv=16.150 Ibv=1.0000E-3 Tt=1.3700E-7 Nbv=1.1000 Tbv1=0.7800E-3 Nbvl=71.700 Ibvl=7.0000E-12 Vpk=16 mfg=Rohm type=Zener)