.model ES1D D(Is=.5u Rs=25m N=2 Cjo=10.5p M=.4 tt=15n Iave=1 Vpk=200 mfg=Vishay type=silicon)