.model FTZU6_2E D(Is=230.74E-18 N=1.0458 Rs=.41856 Ikf=74.679E-3 Cjo=8.0230E-12 M=.30255 Vj=.80201 Isr=8.6796E-9 Nr=1.5000 Bv=6.1300 Ibv=4.9995E-3 Tt=137.06E-9 Nbv=0.3 Tbv1=0.0004 Nbvl=35.000 Ibvl=5.0000E-8 Vpk=6.2 mfg=Rohm type=Zener)