.model KDZLV68 D(Is=11.897E-15 N=1.0461 Rs=79.543E-3 Ikf=27.321E-3 Eg=1.0600 Cjo=69.068E-12 M=.30915 Vj=.5337 Isr=12.797E-12 Nr=2.9000 Bv=68.150 Ibv=10.000E-3 Nbv=1.4540 Tbv1=.00092 Tikf=0.0160 Trs1=-0.0100 Vpk=68 mfg=Rohm type=Zener)