.model KDZLV130 D(Is=81.444E-15 N=1.1171 Rs=.10828 Ikf=37.765E-3 Eg=1.0400 Cjo=43.885E-12 M=.30187 Vj=.50655 Isr=3.1217E-12 Nr=2.1000 Bv=130.30 Ibv=10.000E-3 Nbv=5.5000 Tbv1=.00088 Tikf=0.014 Trs1=-0.0100 Vpk=130 mfg=Rohm type=Zener)