.model KDZLV91 D(Is=23.251E-15 N=1.0814 Rs=.14751 Ikf=.15042 Eg=1.1200 Cjo=55.509E-12 M=.30789 Vj=.50338 Isr=9.9461E-12 Nr=3.5000 Bv=90.820 Ibv=10.000E-3 Nbv=2.9120 Tbv1=.00076 Tikf=0.0150 Trs1=-0.0090 Vpk=91 mfg=Rohm type=Zener)