.model KDZLV82 D(Is=83.986E-15 N=1.1452 Rs=.16403 Ikf=87.427E-3 Eg=1.0700 Cjo=59.644E-12 M=.30583 Vj=.50776 Isr=4.7484E-12 Nr=2.6000 Bv=82.300 Ibv=10.000E-3 Nbv=1.9120 Tbv1=.00096 Tikf=0.0150 Trs1=-0.0050 Vpk=82 mfg=Rohm type=Zener)