.model KDZLV56 D(Is=6.6560E-15 N=1.0295 Rs=0.1246 Ikf=34.267E-3 Eg=1.15 Cjo=81.279E-12 M=0.308 Vj=0.5158 Isr=13.985E-12 Nr=2.8 Bv=56.577 Ibv=2.0000E-3 Nbv=1.3130 Tbv1=0.8200E-3 Tikf=0.0125 Trs1=-0.0057 Vpk=56 mfg=Rohm type=Zener)