.model KDZLV150 D(Is=141.52E-15 N=1.1354 Rs=3.8525E-3 Ikf=16.964E-3 Eg=1.0800 Cjo=39.269E-12 M=.31196 Vj=.50377 Isr=9.8581E-12 Nr=3.2000 Bv=150.30 Ibv=10.000E-3 Nbv=8.0000 Tbv1=.00098 Tikf=0.0160 Trs1=-0.0600 Vpk=150 mfg=Rohm type=Zener)