.model KDZLV110 D(Is=39.006E-15 N=1.0900 Rs=.11928 Ikf=34.674E-3 Eg=1.0800 Cjo=48.449E-12 M=.29958 Vj=.50634 Isr=8.4662E-12 Nr=2.4000 Bv=110.30 Ibv=10.000E-3 Nbv=3.8000 Tbv1=.00097 Tikf=0.0160 Trs1=-0.0080 Vpk=110 mfg=Rohm type=Zener)