.model KDZLV100 D(Is=35.609E-15 N=1.1025 Rs=8.3590E-3 Ikf=26.541E-3 Eg=1.0600 Cjo=51.797E-12 M=.30134 Vj=.50118 Isr=11.419E-12 Nr=2.5000 Bv=100.14 Ibv=10.000E-3 Nbv=2.9120 Tbv1=.00097 Tikf=0.0120 Trs1=-0.0260 Vpk=100 mfg=Rohm type=Zener)