.model KDZLV120 D(Is=76.937E-15 N=1.1142 Rs=75.254E-3 Ikf=26.447E-3 Eg=1.0600 Cjo=45.724E-12 M=.30761 Vj=.50341 Isr=7.4303E-12 Nr=3.0000 Bv=120.30 Ibv=10.000E-3 Nbv=4.8000 Tbv1=.00090 Tikf=0.0160 Trs1=-0.0120 Vpk=120 mfg=Rohm type=Zener)