.model KDZLV75 D(Is=16.460E-15 N=1.0650 Rs=2.2310E-3 Ikf=50.883E-3 Eg=1.0700 Cjo=63.966E-12 M=.30835 Vj=.53581 Isr=6.1393E-12 Nr=2.3000 Bv=74.680 Ibv=10.000E-3 Nbv=3.4540 Tbv1=.00094 Tikf=0.0160 Trs1=-0.0200 Vpk=75 mfg=Rohm type=Zener)