.model KDZLV62 D(Is=8.0345E-15 N=1.0436 Rs=.131 Ikf=24.020E-3 Eg=1.0900 Cjo=73.682E-12 M=.31054 Vj=.52827 Isr=6.0085E-12 Nr=3.5000 Bv=62.130 Ibv=10.000E-3 Nbv=1.9540 Tbv1=.00091 Tikf=0.0120 Trs1=-0.0090 Vpk=62 mfg=Rohm type=Zener)