.model KDZV6_2B D(Is=7.7987E-15 N=1.0266 Rs=1.7144E-2 Ikf=.79621 Cjo=6.6604E-10 M=.37563 Vj=.8407 Isr=1.0071E-11 Nr=5.8500 Bv=6.6090 Ibv=0.1000 Tt=2.3949E-7 Nbv=0.3000 Tbv1=4.0000E-4 Nbvl=9.4000 Ibvl=2.7000E-4 Vpk=6.2 mfg=Rohm type=Zener)