.model KDZV13B D(Is=4.4789E-15 N=1.0330 Rs=1.2989E-2 Ikf=.78343 Cjo=3.0184E-10 M=.37289 Vj=.81299 Isr=8.6650E-12 Nr=2.8300 Bv=14.170 Ibv=4.0000E-2 Tt=2.5247E-7 Nbv=0.6300 Tbv1=7.1000E-4 Nbvl=38.400 Ibvl=3.0000E-9 Vpk=13 mfg=Rohm type=Zener)