.model KDZV15B D(Is=3.8211E-15 N=1.0248 Rs=2.0518E-2 Ikf=.76979 Cjo=2.7529E-10 M=.36249 Vj=.74937 Isr=3.5323E-12 Nr=3.2000 Bv=15.640 Ibv=4.0000E-2 Tt=3.3326E-7 Nbv=0.4700 Tbv1=7.2000E-4 Nbvl=20.8000 Ibvl=1.9000E-8 Vpk=15 mfg=Rohm type=Zener)