.model KDZV10B D(Is=3.4887E-15 N=1.0201 Rs=1.3663E-2 Ikf=.63395 Cjo=3.8410E-10 M=.36185 Vj=.82234 Isr=3.8536E-12 Nr=3.5300 Bv=10.580 Ibv=4.0000E-2 Tt=3.3759E-7 Nbv=0.1500 Tbv1=6.6000E-4 Nbvl=35.0000 Ibvl=0.800E-9 Vpk=10 mfg=Rohm type=Zener)