.model KDZV7_5B D(Is=3.4288E-15 N=1.0206 Rs=1.2931E-2 Ikf=.61872 Cjo=5.6073E-10 M=.36753 Vj=.81058 Isr=0.7587E-10 Nr=3.9500 Bv=7.9290 Ibv=3.9965E-2 Tt=1.3129E-7 Nbv=0.3000 Tbv1=5.2000E-4 Nbvl=12.300 Ibvl=3.5000E-5 Vpk=7.5 mfg=Rohm type=Zener)