.model KDZV18B D(Is=3.9180E-15 N=1.0250 Rs=1.6124E-2 Ikf=.756 Cjo=2.1884E-10 M=.34623 Vj=.73364 Isr=1.0166E-12 Nr=2.8900 Bv=19.200 Ibv=4.0000E-2 Tt=4.3425E-7 Nbv=1.0700 Tbv1=7.4000E-4 Nbvl=48.4000 Ibvl=0.0200E-8 Vpk=18 mfg=Rohm type=Zener)