.model KDZV33B D(Is=2.5505E-15 N=1.0142 Rs=8.9846E-3 Ikf=1.1646 Eg=1.15 Cjo=125.88E-12 M=.33003 Vj=.61691 Isr=385.95E-15 Nr=1.9000 Bv=35.022 Ibv=10.000E-3 Nbv=1.3000 Tbv1=0.8700E-3 Nbvl=300.00 Ibvl=7.0000E-12 Vpk=33 mfg=Rohm type=Zener)