.model KDZV27B D(Is=5.4090E-15 N=1.0328 Rs=8.4497E-3 Ikf=.54146 Cjo=1.4586E-10 M=.35006 Vj=.80706 Isr=2.0905E-12 Nr=4.1900 Bv=29.000 Ibv=4.0000E-2 Tt=5.6265E-7 Nbv=0.6000 Tbv1=8.5000E-4 Nbvl=98.800 Ibvl=2.2000E-10 Vpk=27 mfg=Rohm type=Zener)