.model KDZV16B D(Is=3.9175E-15 N=1.0252 Rs=1.5777E-2 Ikf=.75576 Cjo=2.4536E-10 M=.36000 Vj=.80022 Isr=3.1728E-12 Nr=2.8000 Bv=17.270 Ibv=4.0000E-2 Tt=3.7799E-7 Nbv=0.9000 Tbv1=7.5000E-4 Nbvl=30.2000 Ibvl=0.3000E-8 Vpk=16 mfg=Rohm type=Zener)