.model KDZV8_2B D(Is=3.1583E-15 N=1.0183 Rs=1.6062E-2 Ikf=.59571 Cjo=4.9955E-10 M=.3835 Vj=.82173 Isr=3.69317E-12 Nr=2.0200 Bv=8.7300 Ibv=4.0000E-2 Tt=1.2100E-7 Nbv=0.1500 Tbv1=6.0000E-4 Nbvl=33.5000 Ibvl=6.5000E-9 Vpk=8.2 mfg=Rohm type=Zener)