.model L128-xxyyCB3500001 D(Is=1.1314E-22 Rs=4.2825 N=4.4914 Cj0=74.6p Iave=120m mfg=Lumileds type=LED)