.model L1C1-BLU1000000000 D(Is=1.5907E-11 Rs=0.2863 N=4.5764 Cj0=1.14n Iave=350m mfg=Lumileds type=LED)