.model LXHL-BW02 D(Is=4.5e-20 Rs=.85 N=2.6 Cjo=1.18n Xti=200 Iave=400mA Vpk=5 mfg=Lumileds type=LED)