.model LXK2-PW14 D(Is=3.5e-17 Rs=.725 N=3.12 Cjo=1.2n Xti=200 Iave=1.6 Vpk=5 mfg=Lumileds type=LED)