.model LXZ1-PX01 D(Is=7.2217E-30 Rs=0.1643 N=1.6224 Cj0=1.447n Iave=500m mfg=Lumileds type=LED)