.model MBR0540 D(Is=9.11u Rs=.121 N=1.33753 Eg=.69 Xti=2 Cjo=194p Vj=.25 M=.4 Iave=.5 Vpk=40 mfg=GI type=Schottky)