.model MBR0520L D(Is=82.5n Rs=.115 N=.7228 Cjo=180p M=.63 Eg=.69 Xti=2 Iave=.5 Vpk=20 mfg=OnSemi type=Schottky)