.model MBR0530L D(Is=1.55u Rs=.0858 N=1.079 Cjo=180p Eg=.69 Xti=2 Iave=.5 Vpk=30 mfg=OnSemi type=Schottky)