.model MBRB2545CT D(Is=19.4n Rs=.01 N=.733 Eg=.718 Xti=.535 Cjo=2.05n Vj=.4 M=.41 Iave=25 Vpk=45 mfg=GI type=Schottky)