.model MBRS140 D(Is=235n Rs=.109 N=.7760 Cjo=160p M=.6 Eg=.69 Xti=2 Iave=1 Vpk=40 mfg=OnSemi type=Schottky)