.model MBRS340 D(Is=22.6u Rs=.042 N=1.094 Cjo=480p M=.61 Eg=.69 Xti=2 Iave=3 Vpk=40 mfg=OnSemi type=Schottky)