.model MBRS1100 D(Is=20.6u Rs=.0079 N=2.303 Cjo=270p M=.575 Eg=.69 Xti=2 Iave=1 Vpk=100 mfg=OnSemi type=Schottky)