.model MMBZ27VCLY D(Is=8.8633E-15 N=1.0704 Rs=16.954E-3 Ikf=62.193 Cjo=63.753E-12 M=.32693 Vj=.60687 Isr=203.70E-15 Nr=1.7000 Bv=27.006 Ibv=1.0000E-3 Nbv=0.3900 Tbv1=0.7700E-3 Nbvl=60 Ibvl=1.2000E-12 Vpk=27 mfg=Rohm type=Zener)