.model MMBZ24VALY D(Is=1.0980E-15 N=1.0166 Rs=2.6375E-3 Ikf=.60563 Eg=1.13 Cjo=45.563E-12 M=.32769 Vj=.61377 Isr=3.8180E-12 Nr=4.5 Bv=24.028 Ibv=1.0000E-3 Nbv=0.36 Tbv1=0.7850E-3 Nbvl=25 Ibvl=20.000E-12 Vpk=24 mfg=Rohm type=Zener)