.model MMBZ20VALY D(Is=2.6484E-15 N=1.0525 Rs=2.1876E-3 Ikf=0.8658 Eg=1.1300 Cjo=54.460E-12 M=.32607 Vj=.60198 Isr=1.1180E-12 Nr=3.9000 Bv=20.028 Ibv=1.0000E-3 Nbv=0.2000 Tbv1=0.7650E-3 Nbvl=70.000 Ibvl=9.0000E-12 Vpk=20 mfg=Rohm type=Zener)