.model MMBZ10VALY D(Is=4.0445E-15 N=1.0663 Rs=38.322E-3 Ikf=.28778 Eg=1.1200 Cjo=105.32E-12 M=.32862 Vj=.64123 Isr=6.2732E-12 Nr=3.1000 Bv=10.010 Ibv=1.0000E-3 Nbv=0.0900 Tbv1=0.6200E-3 Nbvl=18.000 Ibvl=6.0000E-9 Vpk=10 mfg=Rohm type=Zener)