.model MMBZ12VALY D(Is=1.2719E-15 N=1.0242 Rs=5.9759E-3 Ikf=.17981 Eg=1.1200 Cjo=84.855E-12 M=.33202 Vj=.68005 Isr=2.8480E-12 Nr=3.3000 Bv=12.010 Ibv=1.0000E-3 Nbv=0.1000 Tbv1=0.6800E-3 Nbvl=32.000 Ibvl=0.2000E-9 Vpk=12 mfg=Rohm type=Zener)