.model MMBZ30VALY D(Is=594.00E-18 N=.99916 Rs=19.535E-3 Ikf=77.346E-3 Eg=1.12 Cjo=37.395E-12 M=.3315 Vj=.62952 Isr=4.1121E-12 Nr=3.1 Bv=30.03 Ibv=1.0000E-3 Nbv=0.4 Tbv1=0.8000E-3 Nbvl=100 Ibvl=12.000E-12 Vpk=30 mfg=Rohm type=Zener)