.model MMBZ18VALY D(Is=1.2359E-15 N=1.0323 Rs=3.2410E-3 Ikf=.48399 Eg=1.1300 Cjo=61.032E-12 M=.32591 Vj=.59303 Isr=1.1180E-12 Nr=2.6000 Bv=18.020 Ibv=1.0000E-3 Nbv=0.1500 Tbv1=0.7500E-3 Nbvl=72.000 Ibvl=25.000E-12 Vpk=18 mfg=Rohm type=Zener)