.model MMBZ33VALY D(Is=394.00E-18 N=.98154 Rs=34.583E-3 Ikf=55.061E-3 Eg=1.1200 Cjo=34.027E-12 M=.33248 Vj=.62932 Isr=2.6121E-12 Nr=3.4 Bv=33.03 Ibv=1.0000E-3 Nbv=0.6 Tbv1=0.7900E-3 Nbvl=140 Ibvl=16.000E-12 Vpk=33 mfg=Rohm type=Zener)