.model MMBZ6V8ALY D(Is=2.3173E-15 N=1.0325 Rs=16.827E-3 Ikf=.91441 Cjo=164.97E-12 M=.35123 Vj=.79209 Isr=3.4312E-12 Nr=5.0000 Bv=6.8100 Ibv=1.0000E-3 Nbv=0.2700 Tbv1=0.4130E-3 Nbvl=14.400 Ibvl=2.0000E-6 Vpk=6.8 mfg=Rohm type=Zener)