.model MMBZ15VALY D(Is=1.9401E-15 N=1.0476 Rs=548.78E-6 Ikf=1.1348 Eg=1.1400 Cjo=73.598E-12 M=.3269 Vj=.56585 Isr=4.2860E-12 Nr=3.7000 Bv=15.014 Ibv=1.0000E-3 Nbv=0.0900 Tbv1=0.7300E-3 Nbvl=39.000 Ibvl=0.1200E-9 Vpk=15 mfg=Rohm type=Zener)