.model MMBZ36VALY D(Is=654.00E-18 N=.98154 Rs=24.583E-3 Ikf=55.061E-3 Eg=1.1200 Cjo=32.227E-12 M=.33248 Vj=.62932 Isr=1.8121E-12 Nr=2.25 Bv=36.03 Ibv=1.0000E-3 Nbv=0.2 Tbv1=0.7900E-3 Nbvl=118 Ibvl=7.5000E-12 Vpk=36 mfg=Rohm type=Zener)