.model MMBZ9V1ALY D(Is=1.8480E-15 N=1.0431 Rs=3.0760E-3 Ikf=.36749 Cjo=119.15E-12 M=.32706 Vj=.62344 Isr=3.4312E-12 Nr=5.0000 Bv=9.1100 Ibv=1.0000E-3 Nbv=0.2700 Tbv1=0.4130E-3 Nbvl=14.400 Ibvl=2.0000E-6 Vpk=9.1 mfg=Rohm type=Zener)