.model MMBZ16VALY D(Is=1.1711E-15 N=1.0351 Rs=3.5159E-3 Ikf=1.1694 Eg=1.1400 Cjo=68.376E-12 M=.32768 Vj=.58294 Isr=2.8760E-12 Nr=2.7300 Bv=16.020 Ibv=1.0000E-3 Nbv=0.1500 Tbv1=0.7300E-3 Nbvl=28.000 Ibvl=100.00E-12 Vpk=16 mfg=Rohm type=Zener)