.model MURS120 D(Is=33.8n Rs=.0236 N=1.718 Cjo=45p M=.6 tt=45n Iave=1 Vpk=200 mfg=OnSemi type=silicon)