.model MURS320 D(Is=1.06n Rs=.0111 N=1.367 Cjo=135p M=.45 tt=45n Iave=3 Vpk=200 mfg=OnSemi type=silicon)