.model NSSWS108T D(Is=1.13e-18 Rs=14.9 N=3.02 Cjo=42p Xti=150 Iave=35m Vpk=5 mfg=Nichia type=LED)