.model PDZV11B D(Is=3.5230E-15 N=1.0199 Rs=1.4003E-2 Ikf=.57497 Cjo=3.4303E-10 M=.36898 Vj=.82469 Isr=1.3346E-12 Nr=3.2700 Bv=11.660 Ibv=4.0000E-2 Tt=4.0107E-7 Nbv=0.3000 Tbv1=7.2000E-4 Nbvl=65.2000 Ibvl=80.0000E-12 Vpk=11 mfg=Rohm type=Zener)