.model PDZV24B D(Is=5.6942E-15 N=1.0353 Rs=7.2332E-3 Ikf=.53216 Cjo=1.6528E-10 M=.36194 Vj=.81773 Isr=0.8905E-12 Nr=3.2200 Bv=25.840 Ibv=4.0000E-2 Tt=5.0927E-7 Nbv=0.3000 Tbv1=8.7000E-4 Nbvl=81.300 Ibvl=30.2000E-12 Vpk=24 mfg=Rohm type=Zener)