.model PDZV13B D(Is=23.513E-15 N=1.0663 Rs=13.887E-3 Ikf=221.14 Cjo=304.30E-12 M=.32852 Vj=.54226 Isr=19.918E-12 Nr=2.6300 Bv=14.147 Ibv=20.000E-3 Nbv=0.2770 Tbv1=0.7190E-3 Nbvl=75.000 Ibvl=300.00E-12 Vpk=13 mfg=Rohm type=Zener)