.model PDZV6_8B D(Is=7.1020E-15 N=1.0222 Rs=1.1115E-2 Ikf=1.0862 Cjo=5.6361E-10 M=.35923 Vj=.81761 Isr=3.5997E-12 Nr=6.8500 Bv=7.2800 Ibv=3.9980E-2 Tt=3.4192E-7 Nbv=0.3000 Tbv1=4.5000E-4 Nbvl=10.150 Ibvl=5.0000E-5 Vpk=6.8 mfg=Rohm type=Zener)