.model PDZV16B D(Is=34.424E-15 N=1.0753 Rs=13.363E-3 Ikf=204.63 Cjo=245.31E-12 M=.32994 Vj=.58504 Isr=26.531E-12 Nr=3.8000 Bv=17.2800 Ibv=20.000E-3 Nbv=0.3200 Tbv1=0.7700E-3 Vpk=16 mfg=Rohm type=Zener)