.model PDZV36B D(Is=2.2393E-15 N=1.0093 Rs=.15077 Ikf=.27407 Cjo=1.2345E-10 M=.37243 Vj=.75498 Isr=0.4952E-12 Nr=2.8540 Bv=38.040 Ibv=4.0000E-2 Tt=5.6554E-7 Nbv=0.6000 Tbv1=9.1000E-4 Nbvl=151.80 Ibvl=4.1000E-12 Vpk=36 mfg=Rohm type=Zener)