.model PDZV22B D(Is=1.7548E-15 N=1.0045 Rs=.1631 Ikf=.38131 Cjo=1.8119E-10 M=.36072 Vj=.82527 Isr=1.46862E-12 Nr=3.6800 Bv=23.270 Ibv=4.0000E-2 Tt=5.2370E-7 Nbv=0.3000 Tbv1=8.2000E-4 Nbvl=54.200 Ibvl=2.0000E-12 Vpk=22 mfg=Rohm type=Zener)