.model PDZV12B D(Is=6.1497E-15 N=1.0456 Rs=1.1352E-2 Ikf=.87678 Cjo=3.4156E-10 M=.36291 Vj=.72255 Isr=5.7166E-12 Nr=2.5200 Bv=12.750 Ibv=4.0000E-2 Tt=1.8755E-7 Nbv=0.5600 Tbv1=7.0000E-4 Nbvl=62.400 Ibvl=0.6000E-9 Vpk=12 mfg=Rohm type=Zener)