.model PDZV15B D(Is=1.8654E-15 N=1.0093 Rs=11.740E-3 Ikf=1.8976 Eg=1.15 Cjo=275.19E-12 M=.32811 Vj=.56071 Isr=431.30E-15 Nr=1.7500 Bv=15.740 Ibv=20.000E-3 Nbv=0.5400 Tbv1=0.7200E-3 Nbvl=100.00 Ibvl=105.00E-12 Vpk=15 mfg=Rohm type=Zener)