.model PDZV20B D(Is=4.7057E-15 N=1.0322 Rs=1.5226E-2 Ikf=.64872 Cjo=1.9710E-10 M=.36495 Vj=.8102 Isr=1.2200E-12 Nr=3.1800 Bv=21.220 Ibv=4.0000E-2 Tt=5.3813E-7 Nbv=0.5000 Tbv1=8.0000E-4 Nbvl=26.200 Ibvl=9.0000E-9 Vpk=20 mfg=Rohm type=Zener)