.model PDZV30B D(Is=5.3639E-15 N=1.0321 Rs=1.1693E-2 Ikf=.50376 Cjo=1.3261E-10 M=.35521 Vj=.81557 Isr=0.4732E-12 Nr=3.2400 Bv=32.060 Ibv=4.0000E-2 Tt=6.3767E-7 Nbv=0.7000 Tbv1=8.5000E-4 Nbvl=231.80 Ibvl=10.0000E-12 Vpk=30 mfg=Rohm type=Zener)