.model PDZV9_1B D(Is=3.4312E-15 N=1.0205 Rs=2.7663E-2 Ikf=.59218 Cjo=4.3436E-10 M=.37044 Vj=.81548 Isr=1.5536E-12 Nr=2.2200 Bv=9.6300 Ibv=4.0000E-2 Tt=2.7123E-7 Nbv=0.1500 Tbv1=6.0000E-4 Nbvl=44.0000 Ibvl=0.800E-9 Vpk=9.1 mfg=Rohm type=Zener)