.model PMEG2020AEA D(Is=5.409u Rs=.05676 N=1.02 Cjo=.1908n M=.4863 Eg=.69 Xti=2 BV=22 IBV=50u Vj=.3408 Iave=2 Vpk=20 mfg=NXP type=Schottky)