.model PMEG6010AED D(Is=.5u Rs=.3422 N=.9751 Cjo=.175n M=.4725 Eg=.69 Xti=2 BV=66 IBV=.0004 Vj=.3761 Iave=1 Vpk=60 mfg=NXP type=Schottky)