.model PMEG2005EB D(Is=.9985u Rs=.2146 N=.9283 Cjo=61.05p M=.4159 Eg=.69 Xti=2 BV=32 IBV=.001 Vj=.1 Iave=.5 Vpk=20 mfg=NXP type=Schottky)