.model PMEG4005AEA D(Is=2.831u Rs=.1975 N=.9816 Cjo=84.37p M=.4789 Eg=.69 Xti=2 BV=44 IBV=50u Vj=.3116 Iave=.5 Vpk=40 mfg=NXP type=Schottky)