.model PMEG3005AEA D(Is=2.936u Rs=.1166 N=.9839 Cjo=.1068n M=.4948 Eg=.69 Xti=2 BV=33 IBV=75u Vj=.3459 Iave=.5 Vpk=30 mfg=NXP type=Schottky)