.model PMEG2010EA D(Is=1.686u Rs=.1249 N=1.015 Cjo=90.86p M=.4542 Eg=.69 Xti=2 BV=21 IBV=1u Vj=.1939 Iave=1 Vpk=20 mfg=NXP type=Schottky)