.model PRLL5817 D(Is=2.119u Rs=.0419 N=1.02 Cjo=.252n M=.5104 Eg=.69 Xti=2 BV=1000 IBV=.001 Vj=.4792 Iave=1 Vpk=20 mfg=NXP type=Schottky)