.model RB055LAM-40 D(Is=676.60E-9 N=0.9950 Rs=31.000E-3 Ikf=89.341E-3 Xti=2 Eg=.69 Cjo=334.80E-12 M=.507 Vj=.5026 Isr=987.38E-9 Nr=1.2000 Bv=40 Iave=3 Vpk=40 mfg=Rohm type=Schottky)