.model RB055LAM-60 D(Is=983.12E-9 N=1.0725 Rs=46.381E-3 Ikf=119.106E-3 Xti=2 Eg=.69 Cjo=270.00E-12 M=.50426 Vj=.50201 Isr=824.34E-9 Nr=1.1500 Bv=60 Trs1=-1.2857E-3 Iave=3 Vpk=60 mfg=Rohm type=Schottky)