.model RB050LAM-60 D(Is=954.59E-9 N=0.9584 Rs=21.970E-3 Ikf=141.25E-3 Xti=2.0 Eg=0.685 Cjo=608.90E-12 M=0.5394 Vj=0.5000 Isr=1.8219E-6 Nr=1.1485 Bv=60 Trs1=708.07E-6 Tikf=622.10E-06 Iave=3 Vpk=60 mfg=Rohm type=Schottky)