.model RB068LAM-40 D(Is=3.4618E-09 N=1.0089 Rs=22.590E-03 Ikf=141.25E-03 Xti=2.0 Eg=0.830 Cjo=301.37E-12 M=0.4955 Vj=0.5432 Isr=6.5693E-09 Nr=1.1560 Bv=40 Trs1=-3.5185E-03 Iave=2 Vpk=40 mfg=Rohm type=Schottky)