.model RB060MM-60 D(Is=464.87E-9 N=1.0077 Rs=58.719E-3 Ikf=.18122 Xti=2 Eg=.69 Cjo=290.25E-12 M=.59592 Vj=.76036 Fc=1.0000E-3 Isr=279.50E-9 Nr=1.1000 Bv=60 Trs1=0.002 Iave=2 Vpk=60 mfg=Rohm type=Schottky)