.model RB068LAM-60 D(Is=4.3511E-9 N=1.0069 Rs=20.407E-3 Ikf=141.25E-3 Xti=2.0 Eg=0.838 Cjo=380.73E-12 M=0.4990 Vj=0.5110 Isr=10.953E-9 Nr=1.2211 Bv=60 Trs1=-4.2000E-3 Iave=2 Vpk=60 mfg=Rohm type=Schottky)