.model RB068LAM100 D(Is=6.2345E-09 N=1.1199 Rs=15.270E-03 Ikf=44.721E-03 Xti=2.0 Eg=0.912 Cjo=287.30E-12 M=0.5127 Vj=0.5812 Isr=3.1623E-09 Nr=1.3467 Bv=100 Trs1=-2.9503E-03 Tikf=9.9475E-03 Iave=2 Vpk=100 mfg=Rohm type=Schottky)