.model RB085BM-90 D(Is=2.0267E-6 N=1.0611 Rs=60.345E-3 Ikf=.48399 Xti=2 Eg=.69 Cjo=430.18E-12 M=.47528 Vj=.42493 Isr=565.41E-9 Bv=90 Iave=10 Vpk=90 mfg=Rohm type=Schottky)