.model RB085BGE-40 D(Is=862.92E-9 N=.96991 Rs=16.333E-3 Ikf=1.4671 Xti=2 Eg=.69 Cjo=827.17E-12 M=.52639 Vj=.55189 Isr=1.3610E-6 Bv=45 Iave=10 Vpk=45 mfg=Rohm type=Schottky)