.model RB085BGE-30 D(Is=3.0956E-6 N=1.0246 Rs=13.858E-3 Ikf=10.939 Xti=2 Eg=.69 Cjo=1.6007E-9 M=.55825 Vj=.46333 Isr=2.1031E-6 Bv=35 Iave=10 Vpk=35 mfg=Rohm type=Schottky)