.model RB085T-90NZ D(Is=1.7554E-6 N=1.0525 Rs=66.179E-3 Ikf=1.0122 Xti=2 Eg=.69 Cjo=484.17E-12 M=.51041 Vj=.42908 Isr=439.27E-9 Bv=90 Iave=10 Vpk=90 mfg=Rohm type=Schottky)