.model RB085T-60NZ D(Is=1.0632E-6 N=.98197 Rs=22.554E-3 Ikf=1.7804 Xti=2 Eg=.69 Cjo=804.88E-12 M=.5316 Vj=.47394 Isr=1.3051E-6 Bv=60 Iave=10 Vpk=60 mfg=Rohm type=Schottky)