.model RB095T-40NZ D(Is=2.2192E-6 N=1.1017 Rs=12.065E-3 Ikf=.97887 Xti=2 Eg=.69 Cjo=644.50E-12 M=.53465 Vj=.42877 Isr=605.81E-9 Bv=45 Iave=6 Vpk=45 mfg=Rohm type=Schottky)