.model RB162MM-40 D(Is=246.35E-9 N=1.0001 Rs=74.598E-3 Ikf=.16687 Xti=2 Eg=.69 Cjo=150.00E-12 M=.55243 Vj=.77313 Isr=203.53E-9 Nr=1.6000 Bv=40 Trs1=0.003 Iave=1 Vpk=40 mfg=Rohm type=Schottky)