.model RB160VAM-40 D(Is=271.63E-9 N=1.0878 Rs=79.950E-3 Ikf=.21125 Xti=2 Eg=.69 Cjo=134.06E-12 M=.49975 Vj=.50021 Isr=497.66E-9 Nr=1.16 Bv=40 Iave=1 Vpk=40 mfg=Rohm type=Schottky)