.model RB162LAM-60 D(Is=239.63E-9 N=.98885 Rs=79.949E-3 Ikf=.11677 Xti=2 Eg=.69 Cjo=160.00E-12 M=.57138 Vj=.75216 Isr=211.24E-9 Nr=1.5000 Bv=60 Trs1=0.003 Iave=1 Vpk=60 mfg=Rohm type=Schottky)