.model RB160MM-30 D(Is=1.6002E-6 N=1.0362 Rs=42.605E-3 Ikf=.4422 Xti=2 Eg=.69 Cjo=294.15E-12 M=.51409 Vj=.41465 Isr=374.04E-9 Bv=30 Iave=1 Vpk=30 mfg=Rohm type=Schottky)