.model RB205T-90NZ D(Is=1.4313E-6 N=.94232 Rs=38.306E-3 Ikf=.41471 Xti=2 Eg=.69 Cjo=846.71E-12 M=.53879 Vj=.47549 Isr=734.12E-9 Bv=90 Iave=15 Vpk=90 mfg=Rohm type=Schottky)