.model RB205T-40NZ D(Is=3.7926E-6 N=1.0395 Rs=11.826E-3 Ikf=5.4095 Xti=2 Eg=.69 Cjo=1.6200E-9 M=.53717 Vj=.40518 Isr=1.7306E-6 Bv=45 Iave=15 Vpk=45 mfg=Rohm type=Schottky)