.model RB205T-60NZ D(Is=2.1645E-6 N=.99882 Rs=13.506E-3 Ikf=1.8409 Xti=2 Eg=.69 Cjo=1.3505E-9 M=.53006 Vj=.42567 Isr=1.0232E-6 Bv=60 Iave=15 Vpk=60 mfg=Rohm type=Schottky)