.model RB215T-40NZ D(Is=5.2387E-6 N=1.0184 Rs=7.5884E-3 Ikf=3.3316 Xti=2 Eg=.69 Cjo=2.2758E-9 M=.53102 Vj=.4616 Isr=4.6417E-6 Bv=45 Iave=20 Vpk=45 mfg=Rohm type=Schottky)