.model RB225T-40NZ D(Is=4.2723E-6 N=1.0169 Rs=6.2330E-3 Ikf=3.4231 Xti=2 Eg=.69 Cjo=2.4503E-9 M=.54397 Vj=.43491 Isr=2.3066E-6 Bv=40 Iave=30 Vpk=40 mfg=Rohm type=Schottky)