.model RB400D D(Is=342.65E-9 N=1.0902 Rs=.20871 Ikf=23.924 Xti=2 Eg=.69 Cjo=126.05E-12 M=.48139 Vj=.41776 Isr=78.020E-9 Bv=40 Iave=0.5 Vpk=40 mfg=Rohm type=Schottky)