.model RB520CM-60 D(Is=10.773E-9 N=1.1559 Rs=2.6295 Ikf=3.5205E-3 Xti=2 Eg=.69 Cjo=4.8122E-12 M=.39233 Vj=.502 Isr=1.210E-8 Nr=1.3000 Bv=60.000 Trs1=-0.002 Iave=0.1 Vpk=60 mfg=Rohm type=Schottky)