.model RB530CM-60 D(Is=30.264E-9 N=1.0712 Rs=1.3128 Ikf=7.7679E-3 Xti=2 Eg=.69 Cjo=11.838E-12 M=.4546 Vj=.5015 Isr=3.850E-8 Nr=1.3000 Bv=60.000 Trs1=0.0018 Iave=0.1 Vpk=60 mfg=Rohm type=Schottky)