.model RB530SM-30 D(Is=40.634E-9 N=1.0718 Rs=.66817 Ikf=7.9386 Xti=2 Eg=.69 Cjo=17.120E-12 M=.46625 Vj=.50582 Isr=0.0400E-6 Nr=1.3000 Bv=30 Trs1=0.005 Iave=0.2 Vpk=30 mfg=Rohm type=Schottky)