.model RB560VM-40 D(Is=98.901E-9 N=1.0334 Rs=.33849 Ikf=.25086 Xti=2 Eg=.69 Cjo=50.482E-12 M=.50295 Vj=.50126 Isr=129.12E-9 Nr=1.2000 Bv=40 Trs1=2.8000E-3 Iave=0.5 Vpk=40 mfg=Rohm type=Schottky)