.model RBQ15BGE10A D(Is=221.50E-9 N=0.9170 Rs=22.723E-3 Ikf=141.25E-3 Xti=2.0 Eg=0.742 Cjo=973.60E-12 M=0.5234 Vj=0.5000 Isr=1.4235E-6 Nr=1.1833 Bv=100 Trs1=1.0576E-3 Iave=15 Vpk=100 mfg=Rohm type=Schottky)