.model RBQ10T45ANZ D(Is=80.364E-9 N=0.9309 Rs=12.011E-3 Ikf=141.25E-3 Xti=2.0 Eg=0.748 Cjo=491.39E-12 M=0.4918 Vj=0.5000 Isr=974.02E-9 Nr=1.2299 Bv=45 Trs1=3.5959E-3 Iave=10 Vpk=45 mfg=Rohm type=Schottky)