.model RBQ30NS45A D(Is=659.64E-9 N=1.0105 Rs=6.1655E-3 Ikf=4.7041 Xti=2 Eg=.69 Cjo=1.5630E-9 M=.52053 Vj=.54379 Isr=730.93E-9 Nr=1.2000 Bv=45 Trs1=0.003 Iave=30 Vpk=45 mfg=Rohm type=Schottky)