.model RBR10BGE60A D(Is=646.09E-9 N=0.9459 Rs=26.226E-3 Ikf=141.25E-3 Xti=2.0 Eg=0.693 Cjo=386.00E-12 M=0.5015 Vj=0.5418 Isr=3.5933E-6 Nr=1.1546 Bv=60 Trs1=1.0768E-3 Tikf=591.10E-06 Iave=10 Vpk=60 mfg=Rohm type=Schottky)