.model RBR2VWM60A D(Is=371.87E-9 N=0.9886 Rs=69.825E-3 Ikf=141.25E-3 Xti=2.0 Eg=0.671 Cjo=166.00E-12 M=0.5081 Vj=0.5000 Isr=1.1895E-6 Nr=1.2667 Bv=60 Trs1=380.02E-6 Iave=2 Vpk=60 mfg=Rohm type=Schottky)