.model RBR2VWM40A D(Is=242.47E-9 N=0.9821 Rs=43.807E-3 Ikf=141.25E-3 Xti=2.0 Eg=0.698 Cjo=191.90E-12 M=0.4999 Vj=0.5000 Isr=654.39E-9 Nr=1.1441 Bv=40 Trs1=755.93E-6 Iave=2 Vpk=40 mfg=Rohm type=Schottky)