.model RBR2MM60A D(Is=.14057E-6 N=0.9563 Rs=82.858E-3 Ikf=.78952 Xti=2 Eg=.69 Cjo=160.28E-12 M=.49337 Vj=.50718 Isr=1.2657E-6 Nr=1.2500 Bv=60 Trs1=5.2600E-3 Iave=2 Vpk=60 mfg=Rohm type=Schottky)