.model RBR2LAM60B D(Is=384.24E-9 N=0.9759 Rs=35.301E-3 Ikf=3.7985 Xti=2 Eg=.69 Cjo=411.00E-12 M=.52067 Vj=.5135 Isr=2.9257E-6 Nr=1.2100 Bv=60 Trs1=1.0000E-3 Iave=2 Vpk=60 mfg=Rohm type=Schottky)