.model RBR3LAM60B D(Is=598.15E-9 N=0.9499 Rs=27.419E-3 Ikf=141.25E-3 Xti=2.0 Eg=0.703 Cjo=412.30E-12 M=0.5212 Vj=0.5000 Isr=2.7477E-6 Nr=1.1654 Bv=60 Trs1=-573.27E-6 Iave=3 Vpk=60 mfg=Rohm type=Schottky)