.model RBR3LAM40B D(Is=.20592E-06 N=.95522 Rs=36.987E-03 Ikf=1.8438 Xti=2.0000 Eg=.68000 Cjo=284.30E-12 M=.50544 Vj=.50003 Isr=.95441E-06 Nr=1.1567 Bv=40 Trs1=-0.9321E-03 Tikf=10.000E-09 Iave=3 Vpk=40 mfg=Rohm type=Schottky)