.model RBR3LAM60A D(Is=364.21E-9 N=0.9623 Rs=46.817E-3 Ikf=141.25E-3 Xti=2.0 Eg=0.708 Cjo=244.70E-12 M=0.5161 Vj=0.5000 Isr=1.6055E-6 Nr=1.1962 Bv=60 Trs1=610.36E-6 Iave=3 Vpk=60 mfg=Rohm type=Schottky)