.model RBR40NS30A D(Is=1.0341E-6 N=0.8185 Rs=3.7552E-3 Ikf=141.25E-3 Xti=2.0 Eg=0.676 Cjo=3.4300E-9 M=0.5308 Vj=0.5031 Isr=16.025E-6 Nr=1.2120 Bv=30 Trs1=1.8511E-3 Iave=40 Vpk=30 mfg=Rohm type=Schottky)