.model RBR40NS60A D(Is=2.6325E-6 N=0.8773 Rs=5.1539E-3 Ikf=141.25E-3 Xti=2.0 Eg=0.676 Cjo=2.3300E-9 M=0.5232 Vj=0.5000 Isr=17.534E-6 Nr=1.2062 Bv=60 Trs1=1.6630E-3 Tikf=7.4165E-03 Iave=40 Vpk=60 mfg=Rohm type=Schottky)