.model RBR5LAM60A D(Is=648.10E-9 N=.94915 Rs=16.414E-3 Ikf=1.8382 Xti=2 Eg=.69 Cjo=839.22E-12 M=.53961 Vj=.50407 Isr=6.2071E-6 Nr=1.2000 Bv=60 Trs1=0.0060 Iave=5 Vpk=60 mfg=Rohm type=Schottky)