.model RBS3LAM40B D(Is=24.207E-6 N=1.2693 Rs=37.294E-3 Ikf=84.081 Xti=2.0 Eg=0.5291 Cjo=387.30E-12 M=0.5269 Vj=0.5012 Isr=104.79E-6 Nr=1.032 Bv=40 Trs1=1.1200E-3 Iave=3 Vpk=40 mfg=Rohm type=Schottky)