.model RF101LAM2S D(Is=182.53E-12 N=1.2468 Rs=9.0859E-3 Ikf=.12922 Eg=.98 Cjo=69.022E-12 M=.4385 Vj=.53016 Isr=147.65E-12 Nr=3.7000 Bv=200 Tt=26.959E-9 Tikf=0.035 Trs1=0.002 Iave=1 Vpk=200 mfg=Rohm type=Silicon)