.model RF1005TF6S D(Is=14.956E-9 N=1.8393 Rs=18.550E-3 Ikf=.19576 Cjo=270.00E-12 M=.47268 Vj=.51459 Isr=534.12E-12 Nr=3 Bv=600 Tt=61n Tikf=0.01 Iave=10 Vpk=600 mfg=Rohm type=Silicon)