.model RF201LAM4S D(Is=79.433E-12 N=1.0591 Rs=35.539E-03 Ikf=1.5838E-03 Eg=0.941 Cjo=122.00E-12 M=0.4705 Vj=0.5607 Isr=481.86E-12 Nr=1.8587 Bv=400 Tt=44.887E-09 Trs1=-1.2355E-03 Tikf=17.399E-03 Iave=1.5 Vpk=400 mfg=Rohm type=Silicon)