.model RFN2LAM6S D(Is=4.9611E-9 N=1.5448 Rs=99.753E-3 Ikf=3.3881E-3 Eg=.99 Cjo=44.975E-12 M=.43532 Vj=.50015 Isr=632.96E-12 Nr=4.2000 Bv=600 Tt=37.172E-9 Tikf=0.0120 Trs1=-4.1000E-3 Iave=1.5 Vpk=600 mfg=Rohm type=Silicon)