.model RFN3BGE6S D(Is=794.33E-12 N=1.4592 Rs=57.11E-03 Ikf=5.5776E-03 Eg=1.252 Cjo=91.000E-12 M=0.5109 Vj=0.7392 Isr=592.99E-12 Nr=3.6388 Bv=600 Tt=40.326E-9 Trs1=-0.4500E-03 Iave=3 Vpk=600 mfg=Rohm type=Silicon)