.model RFN6BGE2D D(Is=124.78E-12 N=1.1947 Rs=15.799E-3 Ikf=97.168E-3 Eg=.95 Cjo=87.740E-12 M=.45016 Vj=.50918 Isr=201.48E-12 Nr=3 Bv=200 Tt=25.304E-9 Tikf=0.018 Trs1=0.0005 Iave=6 Vpk=200 mfg=Rohm type=Silicon)