.model RFNL10TJ6S D(Is=2.6776E-9 N=1.3110 Rs=1.2252E-2 Ikf=2.4043E-2 Eg=0.8900 Cjo=2.1500E-10 M=.48594 Vj=.60725 Isr=4.8248E-10 Nr=3.9000 Bv=600.00 Tt=1.068E-7 Tikf=8.0000E-2 Iave=10 Vpk=600 mfg=Rohm type=Silicon)