.model RFU02VS8S D(Is=20.057E-9 N=2.9921 Rs=1.9320 Ikf=1.7685E-3 Eg=1.4000 Cjo=4.1000E-12 M=.33142 Vj=.7549 Isr=193.07E-12 Nr=3.5000 Bv=800 Tt=35.346E-9 Tikf=0.01 Trs1=-0.0015 Iave=0.2 Vpk=800 mfg=Rohm type=Silicon)