.model RFUH5TF6S D(Is=3.3149E-9 N=1.4484 Rs=.184573 Ikf=68.978E-3 Eg=1.030 Cjo=1.0000E-10 M=.48169 Vj=.59596 Isr=7.2384E-10 Nr=6.5000 Bv=600.00 Tt=2.5670E-8 Trs1=-3.1300E-3 Iave=5 Vpk=600 mfg=Rohm type=Silicon)