.model RFV12TJ6S D(Is=5.8156E-9 N=1.2192 Rs=.11590 Ikf=6.9496E-3 Eg=0.9200 Cjo=1.4500E-10 M=.40055 Vj=.50266 Isr=1.6946E-9 Nr=5.4500 Bv=600.00 Tt=3.8949E-8 Trs1=-5.300E-3 Iave=12 Vpk=600 mfg=Rohm type=Silicon)