.model RFV15TG6S D(Is=9.6250E-9 N=1.3140 Rs=9.87610E-2 Ikf=4.6480E-2 Eg=.88000 Cjo=1.8000E-10 M=.38552 Vj=.50369 Isr=1.6160E-9 Nr=2.4000 Bv=600.00 Tt=4.1720E-8 Trs1=-5.2000E-3 Iave=15 Vpk=600 mfg=Rohm type=Silicon)