.model RFVS8TG6S D(Is=1.8720E-9 N=1.3051 Rs=0.20178 Ikf=4.7129E-3 Eg=1.0050 Cjo=6.9000E-11 M=.39100 Vj=.50319 Isr=1.3515E-9 Nr=7.9000 Bv=600.00 Tt=2.7815E-8 Tikf=0.01000 Trs1=-4.8000E-3 Iave=8 Vpk=600 mfg=Rohm type=Silicon)