.model RN142SM D(Is=168.42E-15 N=.90872 Rs=76.753E-3 Ikf=124.73E-9 Eg=1.14 Cjo=392.00E-15 M=0.1169 Vj=0.5000 Isr=6.1190E-12 Nr=2.2000 Bv=60 Tt=358.84E-09 Trs1=-4.2000E-03 Tikf=3.2896E-03 Iave=0.1 Vpk=60 mfg=Rohm type=Silicon)