.model RR1LAM4S D(Is=12.747E-9 N=1.8735 Rs=40.229E-3 Ikf=96.237 Eg=0.9700 Cjo=23.000E-12 M=.36429 Vj=.50289 Isr=200.19E-12 Nr=2.1000 Bv=500.00 Tt=3.9138E-6 Trs1=-0.5000E-3 Iave=1 Vpk=500 mfg=Rohm type=Silicon)