.model RR1LAM6S D(Is=7.1097E-9 N=1.8283 Rs=38.553E-3 Ikf=4.7338 Eg=1.0200 Cjo=17.950E-12 M=.37984 Vj=.50367 Isr=676.14E-12 Nr=2.1000 Bv=750.00 Tt=3.9298E-6 Trs1=-0.0100E-3 Tikf=0.0100 Iave=1 Vpk=750 mfg=Rohm type=Silicon)