.model RR1VWM6S D(Is=7.7154E-09 N=1.9953 Rs=111.30E-03 Ikf=913.91E-03 Xti=3.0 Eg=1.08 Cjo=5.9000E-12 M=0.4068 Vj=0.5000 Isr=361.18E-12 Nr=1.9366 Bv=600 Tt=2.0452E-6 Trs1=2.1060E-03 Tikf=7.1123E-03 Iave=1 Vpk=600 mfg=Rohm type=Silicon)