.model RRD20TJ10S D(Is=614.99E-12 N=1.4312 Rs=3.4623E-3 Ikf=67.94 Eg=1.09 Cjo=372.48E-12 M=0.4583 Vj=0.5126 Isr=319.69E-12 Nr=2.45 Bv=1000 Tt=14.840E-6 Trs1=2.3853E-3 Tikf=11.853E-3 Iave=20 Vpk=1000 mfg=Rohm type=Silicon)