.model RRE02VSM6S D(Is=865.57E-12 N=1.8532 Rs=.22784 Ikf=81.233 Eg=1.0800 Cjo=2.6000E-12 M=.29056 Vj=.52841 Isr=654.57E-12 Nr=3.6000 Bv=600 Tt=930.00E-9 Trs1=0.001 Iave=0.2 Vpk=600 mfg=Rohm type=Silicon)