.model RSB12W D(Is=38.231E-18 N=1.0294 Rs=.51389 Ikf=53.635E-3 Cjo=2.0077E-12 M=.32743 Vj=.84957 Isr=4.4827E-12 Bv=11.140 Ibv=5.0000E-3 Tt=173.12E-9 Nbv=0.2 Tbv1=0.0007 Vpk=12 mfg=Rohm type=Zener)