.model SMBJ24CA D(Ron=.65 Roff=50Meg Vfwd=25 epsilon=6 Vrev=25 revepsilon=6 Vpk=24 mfg=Littlefuse type=TVS)