.model SMCJ33A D(Ron=.4 Roff=8Meg Vfwd=.7 epsilon=100m Vrev=38.65 Vpk=33 revepsilon=4 mfg=Littlefuse type=TVS)