.model SS3P5 D(Is=120u Rs=40m N=2.05 Cjo=200p Vj=700m M=.45 Iave=3 Vpk=50 mfg=Fairchild type=Schottky)