.model STZ5_6N D(Is=122.12E-18 N=1.0166 Rs=.21698 Ikf=4.2967 Cjo=15.647E-12 M=.3377 Vj=.80129 Isr=29.593E-12 Nr=1.6500 Bv=5.6100 Ibv=4.9900E-3 Tt=93.775E-9 Nbv=0.3 Tbv1=0.0005 Nbvl=10 Ibvl=1.0000E-5 Vpk=5.6 mfg=Rohm type=Zener)