.model TDZV27 D(Is=172.57E-18 N=.91478 Rs=.24722 Ikf=19.009E-3 Eg=1.1400 Cjo=130.95E-12 M=.33089 Vj=.60678 Isr=1.1884E-12 Nr=4.1000 Bv=27.015 Ibv=10.000E-3 Nbv=1.1000 Tbv1=.00085 Vpk=27 mfg=Rohm type=Zener)