.model TDZV30 D(Is=1.5828E-15 N=.99831 Rs=.27398 Ikf=.10565 Eg=1.1400 Cjo=119.37E-12 M=.33405 Vj=.61023 Isr=1.2000E-12 Nr=2.5000 Bv=30.053 Ibv=10.000E-3 Nbv=1.1800 Tbv1=.00084 Vpk=30 mfg=Rohm type=Zener)