.model TDZV10 D(Is=2.9474E-15 N=1.0200 Rs=.21447 Ikf=53.583E-3 Eg=1.1400 Cjo=331.16E-12 M=.3314 Vj=.6198 Isr=2.9545E-12 Nr=2.5000 Bv=10.000 Ibv=10.000E-3 Nbv=0.15 Tbv1=0.00064 Nbvl=43.000 Ibvl=0.800E-9 Vpk=10 mfg=Rohm type=Zener)