.model TDZV16 D(Is=3.4397E-15 N=1.0447 Rs=.29672 Ikf=33.197 Eg=1.1200 Cjo=216.60E-12 M=.32897 Vj=.5569 Isr=3.2415E-12 Nr=3.0000 Bv=16.005 Ibv=10.000E-3 Nbv=0.5000 Tbv1=0.00075 Nbvl=42.0000 Ibvl=0.3000E-9 Vpk=16 mfg=Rohm type=Zener)