.model TDZV6_2 D(Is=43.210E-18 N=.86754 Rs=.15314 Ikf=32.880E-3 Eg=1.0900 Cjo=604.96E-12 M=.34813 Vj=.74616 Isr=2.7210E-12 Nr=4.4000 Bv=6.2000 Ibv=10.000E-3 Nbv=0.62 Tbv1=0.3700E-3 Nbvl=10.200 Ibvl=0.7000E-3 Vpk=6.2 mfg=Rohm type=Zener)