.model TDZV22 D(Is=1.4378E-15 N=1.0028 Rs=.18933 Ikf=.39824 Eg=1.1400 Cjo=157.17E-12 M=.33121 Vj=.59891 Isr=1.9754E-12 Nr=2.8000 Bv=22.030 Ibv=10.000E-3 Nbv=0.8000 Tbv1=.00076 Vpk=22 mfg=Rohm type=Zener)