.model TDZV8_2 D(Is=2.5779E-15 N=1.0164 Rs=.31422 Ikf=20.490 Eg=1.1400 Cjo=452.38E-12 M=.32894 Vj=.55981 Isr=42.872E-12 Nr=4.4000 Bv=8.2000 Ibv=10.000E-3 Nbv=0.22 Tbv1=0.00053 Nbvl=14.200 Ibvl=5.0000E-6 Vpk=8.2 mfg=Rohm type=Zener)