.model TDZV11 D(Is=1.5896E-15 N=1.0026 Rs=.19523 Ikf=23.390 Eg=1.1200 Cjo=292.82E-12 M=.33418 Vj=.64877 Isr=2.7005E-12 Nr=2.6000 Bv=11.005 Ibv=10.000E-3 Nbv=0.18 Tbv1=0.00066 Nbvl=29.000 Ibvl=0.800E-9 Vpk=11 mfg=Rohm type=Zener)