.model TDZV24 D(Is=1.8298E-15 N=1.0121 Rs=.22904 Ikf=36.546 Eg=1.1400 Cjo=144.56E-12 M=.33223 Vj=.60732 Isr=1.2818E-12 Nr=2.5000 Bv=24.032 Ibv=10.000E-3 Nbv=0.9000 Tbv1=.00076 Vpk=24 mfg=Rohm type=Zener)