.model TDZV15 D(Is=2.2550E-15 N=1.0151 Rs=.25938 Ikf=60.049 Eg=1.1300 Cjo=234.45E-12 M=.32789 Vj=.54274 Isr=3.4015E-12 Nr=3.7000 Bv=15.005 Ibv=10.000E-3 Nbv=0.8000 Tbv1=0.00075 Nbvl=42.0000 Ibvl=0.4000E-9 Vpk=15 mfg=Rohm type=Zener)