.model TDZV12 D(Is=1.6703E-15 N=.99376 Rs=.17861 Ikf=39.792E-3 Eg=1.1300 Cjo=270.49E-12 M=.33387 Vj=.64533 Isr=2.939E-12 Nr=4.1000 Bv=12.005 Ibv=10.000E-3 Nbv=0.1800 Tbv1=0.00068 Nbvl=22.500 Ibvl=0.800E-9 Vpk=12 mfg=Rohm type=Zener)