.model TDZV20 D(Is=1.7273E-15 N=1.0059 Rs=.16948 Ikf=.55047 Eg=1.1400 Cjo=171.51E-12 M=.33036 Vj=.58896 Isr=4.2197E-12 Nr=3.2000 Bv=20.010 Ibv=10.000E-3 Nbv=0.5000 Tbv1=0.00082 Vpk=20 mfg=Rohm type=Zener)