.model TDZV18 D(Is=9.8587E-15 N=1.0625 Rs=.30035 Ikf=23.904 Eg=1.1400 Cjo=190.34E-12 M=.32456 Vj=.5789 Isr=9.9953E-12 Nr=4.0000 Bv=18.010 Ibv=10.000E-3 Nbv=0.4000 Tbv1=0.00078 Vpk=18 mfg=Rohm type=Zener)