.model TDZV6_8 D(Is=103.8E-18 N=.88483 Rs=.21591 Ikf=43.222E-3 Eg=1.0900 Cjo=514.65E-12 M=.36443 Vj=.78897 Isr=3.8720E-12 Nr=4.1000 Bv=6.8000 Ibv=10.000E-3 Nbv=0.38 Tbv1=0.4400E-3 Nbvl=9.4000 Ibvl=200.00E-6 Vpk=6.8 mfg=Rohm type=Zener)