.model TFZV11B D(Is=810.63E-18 N=1.0121 Rs=62.795E-3 Ikf=.4655 Cjo=95.700E-12 M=.3469 Vj=.76095 Isr=1.610E-12 Nr=2.3000 Bv=11.065 Ibv=10.000E-3 Tt=77.000E-9 Nbv=0.4000 Tbv1=0.00066 Ibvl=1.0000E-9 Nbvl=29.000 Vpk=11 mfg=Rohm type=Zener)