.model TFZV6_8B D(Is=1.9454E-15 N=1.0150 Rs=55.964E-3 Ikf=.44707 Cjo=164.10E-12 M=.37292 Vj=.83682 Isr=8.7747E-12 Nr=3.0000 Bv=6.6200 Ibv=20.000E-3 Tt=28.000E-9 Nbv=0.2 Tbv1=0.00044 Nbvl=10.600 Ibvl=4.0000E-6 Vpk=6.8 mfg=Rohm type=Zener)