.model TFZV16B D(Is=954.34E-18 N=1.0205 Rs=48.973E-3 Ikf=.79432 Cjo=72.200E-12 M=.35801 Vj=.75995 Isr=4.2636E-12 Nr=3.2000 Bv=15.745 Ibv=10.000E-3 Tt=137.00E-9 Nbv=0.9000 Tbv1=0.00075 Nbvl=11.5000 Ibvl=1.0000E-6 Vpk=16 mfg=Rohm type=Zener)