.model TFZV33B D(Is=2.1434E-15 N=1.0387 Rs=58.125E-3 Ikf=.40128 Cjo=36.600E-12 M=.34613 Vj=.75779 Isr=2.2076E-12 Nr=2.9000 Bv=31.100 Ibv=5.0000E-3 Tt=336.00E-9 Nbv=0.4000 Tbv1=0.00084 Ibvl=1.1500E-9 Nbvl=38.000 Vpk=33 mfg=Rohm type=Zener)