.model TFZV30B D(Is=1.4429E-15 N=1.0276 Rs=48.558E-3 Ikf=.4142 Cjo=40.200E-12 M=.34633 Vj=.75949 Isr=1.26170E-12 Nr=3.2400 Bv=28.415 Ibv=5.0000E-3 Tt=278.00E-9 Nbv=0.3000 Tbv1=0.00079 Ibvl=1.1400E-9 Nbvl=34.000 Vpk=30 mfg=Rohm type=Zener)