.model TFZV22B D(Is=1.2399E-15 N=1.0240 Rs=50.666E-3 Ikf=.48358 Cjo=53.300E-12 M=.34758 Vj=.75688 Isr=1.8699E-12 Nr=2.9000 Bv=21.275 Ibv=5.0000E-3 Tt=228.00E-9 Nbv=0.4000 Tbv1=0.00075 Nbvl=12.0000 Ibvl=2.2000E-6 Vpk=22 mfg=Rohm type=Zener)