.model TFZV36B D(Is=2.6929E-15 N=1.0442 Rs=54.412E-3 Ikf=.37899 Cjo=34.700E-12 M=.35254 Vj=.75641 Isr=2.0578E-12 Nr=3.1000 Bv=33.740 Ibv=5.0000E-3 Tt=335.00E-9 Nbv=0.5000 Tbv1=0.00085 Vpk=36 mfg=Rohm type=Zener)