.model TFZV24B D(Is=1.6476E-15 N=1.0306 Rs=58.807E-3 Ikf=.47991 Cjo=48.400E-12 M=.34817 Vj=.7649 Isr=1.3565E-12 Nr=2.5000 Bv=23.190 Ibv=5.0000E-3 Tt=243.00E-9 Nbv=0.4000 Tbv1=0.00082 Nbvl=11.5000 Ibvl=1.2000E-6 Vpk=24 mfg=Rohm type=Zener)