.model TFZV13B D(Is=894.48E-18 N=1.0197 Rs=52.459E-3 Ikf=.78903 Cjo=88.700E-12 M=.36613 Vj=.75915 Isr=2.100E-12 Nr=2.3000 Bv=12.940 Ibv=10.000E-3 Tt=107.00E-9 Nbv=0.4000 Tbv1=0.00071 Nbvl=37.6000 Ibvl=0.6000E-9 Vpk=13 mfg=Rohm type=Zener)