.model TFZV7_5B D(Is=1.5340E-15 N=1.0259 Rs=53.231E-3 Ikf=1.8105 Cjo=171.70E-12 M=.37075 Vj=.75529 Isr=34.753E-12 Nr=3.1000 Bv=7.2500 Ibv=20.000E-3 Tt=30.000E-9 Nbv=0.3000 Tbv1=0.00045 Nbvl=13.600 Ibvl=50.000E-6 Vpk=7.5 mfg=Rohm type=Zener)