.model TFZV15B D(Is=856.98E-18 N=1.0189 Rs=58.944E-3 Ikf=.73049 Cjo=79.900E-12 M=.36106 Vj=.75106 Isr=5.000E-12 Nr=3.1000 Bv=14.335 Ibv=10.000E-3 Tt=126.00E-9 Nbv=0.6000 Tbv1=0.00070 Nbvl=10.5000 Ibvl=1.0000E-6 Vpk=15 mfg=Rohm type=Zener)