.model TFZV27B D(Is=1.6247E-15 N=1.0309 Rs=54.713E-3 Ikf=.45484 Cjo=43.700E-12 M=.33809 Vj=.64092 Isr=1.3680E-12 Nr=3.2500 Bv=25.645 Ibv=5.0000E-3 Tt=278.00E-9 Nbv=0.4000 Tbv1=0.000825 Vpk=27 mfg=Rohm type=Zener)