.model TFZV9_1B D(Is=1.1981E-15 N=1.0216 Rs=50.641E-3 Ikf=.66743 Cjo=126.40E-12 M=.3523 Vj=.75881 Isr=8.2837E-12 Nr=2.9000 Bv=8.7800 Ibv=20.000E-3 Tt=42.000E-9 Nbv=0.2000 Tbv1=0.00058 Nbvl=16.500 Ibvl=100.00E-9 Vpk=9.1 mfg=Rohm type=Zener)