.model TFZV39B D(Is=4.2675E-15 N=1.0582 Rs=54.885E-3 Ikf=.34301 Cjo=32.600E-12 M=.34409 Vj=.75393 Isr=2.7494E-12 Nr=2.5000 Bv=36.275 Ibv=5.0000E-3 Tt=370.00E-9 Nbv=0.5000 Tbv1=0.00092 Ibvl=1.0000E-9 Nbvl=49.000 Vpk=39.98 mfg=Rohm type=Zener)