.model TFZV18B D(Is=608.54E-18 N=1.0090 Rs=54.041E-3 Ikf=.60117 Cjo=65.300E-12 M=.35764 Vj=.77193 Isr=3.5679E-12 Nr=3.0000 Bv=17.400 Ibv=10.000E-3 Tt=165.00E-9 Nbv=0.8000 Tbv1=0.00076 Nbvl=14.0000 Ibvl=1.0000E-6 Vpk=18 mfg=Rohm type=Zener)