.model TFZV10B D(Is=824.32E-18 N=1.0124 Rs=62.063E-3 Ikf=.53609 Cjo=111.30E-12 M=.34776 Vj=.75942 Isr=2.341E-12 Nr=3.4000 Bv=9.6550 Ibv=20.000E-3 Tt=53.000E-9 Nbv=0.3000 Tbv1=0.00056 Nbvl=15.500 Ibvl=30.000E-9 Vpk=10 mfg=Rohm type=Zener)