.model TFZV20B D(Is=834.38E-18 N=1.0164 Rs=45.968E-3 Ikf=.67872 Cjo=58.800E-12 M=.35099 Vj=.76145 Isr=1.7140E-12 Nr=2.9000 Bv=19.110 Ibv=10.000E-3 Tt=185.00E-9 Nbv=0.5000 Tbv1=0.00079 Nbvl=11.0000 Ibvl=1.0000E-6 Vpk=20 mfg=Rohm type=Zener)