.model UDZLV75 D(Is=22.847E-15 N=1.1439 Rs=.38686 Ikf=46.255E-3 Eg=1.1300 Cjo=10.907E-12 M=.30119 Vj=.52425 Isr=4.3267E-12 Nr=2.8600 Bv=74.180 Ibv=10.000E-3 Nbv=3.4110 Tbv1=898.00E-6 Vpk=75 mfg=Rohm type=Zener)