.model UDZLV51 D(Is=5.9060E-15 N=1.1071 Rs=.4929 Ikf=.2611 Eg=1.1600 Cjo=14.693E-12 M=.30588 Vj=.51395 Isr=3.5777E-12 Nr=2.8000 Bv=49.310 Ibv=10.000E-3 Nbv=2.2140 Tbv1=898.00E-6 Vpk=51 mfg=Rohm type=Zener)