.model UDZLV68 D(Is=6.9546E-15 N=1.0952 Rs=.40795 Ikf=41.494E-3 Eg=1.1300 Cjo=11.768E-12 M=.2945 Vj=.50665 Isr=6.3716E-12 Nr=3.7000 Bv=68.200 Ibv=10.000E-3 Nbv=3.1810 Tbv1=898.00E-6 Vpk=68 mfg=Rohm type=Zener)