.model UDZLV91 D(Is=34.201E-15 N=1.1584 Rs=.36458 Ikf=36.852E-3 Eg=1.1300 Cjo=9.6423E-12 M=.28929 Vj=.50123 Isr=5.4663E-12 Nr=3.8000 Bv=91.040 Ibv=10.000E-3 Nbv=6.3210 Tbv1=875.00E-6 Vpk=91 mfg=Rohm type=Zener)