.model UDZLV130 D(Is=305.38E-15 N=1.2425 Rs=.43862 Ikf=4.1984E-3 Eg=1.0500 Cjo=7.5990E-12 M=.29452 Vj=.50123 Isr=6.1628E-12 Nr=3.2000 Bv=133.90 Ibv=10.000E-3 Nbv=12.6380 Tbv1=858.00E-6 Vpk=130 mfg=Rohm type=Zener)