.model UDZLV82 D(Is=36.443E-15 N=1.1613 Rs=.36351 Ikf=36.888E-3 Eg=1.1300 Cjo=10.282E-12 M=.29981 Vj=.50125 Isr=3.1536E-12 Nr=4.2000 Bv=82.840 Ibv=10.000E-3 Nbv=7.2110 Tbv1=903.00E-6 Vpk=82 mfg=Rohm type=Zener)