.model UDZLV62 D(Is=5.1050E-15 N=1.0901 Rs=.37466 Ikf=45.677E-3 Eg=1.1600 Cjo=12.645E-12 M=.2962 Vj=.51023 Isr=6.5102E-12 Nr=4.0000 Bv=61.500 Ibv=10.000E-3 Nbv=2.3810 Tbv1=898.00E-6 Vpk=62 mfg=Rohm type=Zener)