.model UDZLV120 D(Is=159.42E-15 N=1.2181 Rs=.39576 Ikf=13.336E-3 Eg=1.0600 Cjo=8.0826E-12 M=.29872 Vj=.50142 Isr=7.9828E-12 Nr=3.1000 Bv=123.50 Ibv=10.000E-3 Nbv=12.6380 Tbv1=858.00E-6 Vpk=120 mfg=Rohm type=Zener)