.model UDZLV150 D(Is=1.0270E-12 N=1.3177 Rs=.45431 Ikf=4.3118E-3 Eg=1.00 Cjo=7.1829E-12 M=.28309 Vj=.5012 Isr=4.5289E-12 Nr=4.7000 Bv=152.70 Ibv=10.000E-3 Nbv=12.6380 Tbv1=958.00E-6 Vpk=150 mfg=Rohm type=Zener)