.model UDZLV100 D(Is=73.755E-15 N=1.1923 Rs=.36528 Ikf=54.240E-3 Eg=1.1300 Cjo=9.3111E-12 M=.28169 Vj=.50321 Isr=8.7568E-12 Nr=4.7000 Bv=100.21 Ibv=10.000E-3 Nbv=5.0210 Tbv1=898.00E-6 Vpk=100 mfg=Rohm type=Zener)