.model UDZLV110 D(Is=228.54E-15 N=1.2504 Rs=.37701 Ikf=.14168 Eg=1.0900 Cjo=8.5248E-12 M=.28889 Vj=.50141 Isr=7.3690E-12 Nr=4.7000 Bv=110.51 Ibv=10.000E-3 Nbv=12.321 Tbv1=898.00E-6 Vpk=110 mfg=Rohm type=Zener)