.model UDZLV56 D(Is=5.3195E-15 N=1.1014 Rs=.49 Ikf=.21655 Eg=1.1600 Cjo=13.707E-12 M=.29624 Vj=.50263 Isr=5.6467E-12 Nr=4.5000 Bv=55.400 Ibv=10.000E-3 Nbv=2.3410 Tbv1=898.00E-6 Vpk=56 mfg=Rohm type=Zener)