.model UDZV15B D(Is=2.6563E-16 N=1.0349 Rs=.29514 Ikf=35.137 Cjo=1.4700E-11 M=.36513 Vj=.75709 Isr=6.4100E-13 Nr=2.7200 Bv=14.700 Ibv=1.0000E-3 Tt=1.5100E-7 Nbv=0.8600 Tbv1=0.7600E-3 Nbvl=20.700 Ibvl=1.8000E-10 Vpk=15 mfg=Rohm type=Zener)