.model UDZV47 D(Is=15.330E-15 N=1.1565 Rs=.27594 Ikf=45.862E-3 Cjo=5.7000E-12 M=0.3178 Vj=.50467 Isr=0.4084E-12 Nr=3.2000 Bv=46.480 Ibv=1.0000E-3 Tt=246.00E-9 Nbv=4.8500 Tbv1=958.00E-6 Nbvl=290.00 Ibvl=1.4000E-12 Vpk=47 mfg=Rohm type=Zener)