.model UDZV24B D(Is=1.1267E-15 N=1.0731 Rs=.28474 Ikf=.67038 Cjo=9.2000E-12 M=.34336 Vj=.75563 Isr=2.4424E-13 Nr=2.1800 Bv=24.350 Ibv=1.0000E-3 Tt=2.0500E-7 Nbv=0.8000 Tbv1=0.8500E-3 Nbvl=72.00 Ibvl=6.5000E-12 Vpk=24 mfg=Rohm type=Zener)