.model UDZV22B D(Is=151.47E-18 N=1.0038 Rs=.55814 Ikf=33.191 Eg=1.15 Cjo=9.9600E-12 M=.33139 Vj=.60838 Isr=963.85E-15 Nr=3.8000 Bv=22.000 Ibv=1.0000E-3 Nbv=1.2000 Tbv1=0.7800E-3 Vpk=22 mfg=Rohm type=Zener)