.model UDZV43 D(Is=4.2960E-15 N=1.1021 Rs=.28518 Ikf=35.138E-3 Cjo=6.5000E-12 M=0.2781 Vj=0.5045 Isr=0.7506E-12 Nr=3.5000 Bv=42.620 Ibv=1.0000E-3 Tt=231.00E-9 Nbv=3.7000 Tbv1=1.3100E-3 Nbvl=295.000 Ibvl=4.0000E-12 Vpk=43 mfg=Rohm type=Zener)