.model UDZV8_2B D(Is=2.2428E-16 N=1.0295 Rs=.26107 Ikf=1.2319 Cjo=2.2200E-11 M=.38384 Vj=.75935 Isr=2.7900E-12 Nr=3.3000 Bv=8.1900 Ibv=5.0000E-3 Tt=69.000E-9 Nbv=0.1000 Tbv1=0.5500E-3 Nbvl=14.000 Ibvl=10.000E-9 Vpk=8.2 mfg=Rohm type=Zener)