.model UDZV27B D(Is=1.2516E-15 N=1.0723 Rs=.24316 Ikf=.52825 Cjo=8.5000E-12 M=.32197 Vj=.76072 Isr=4.5326E-13 Nr=2.3500 Bv=26.89 Ibv=1.0000E-3 Tt=1.8400E-7 Nbv=1.6500 Tbv1=0.8500E-3 Nbvl=165.00 Ibvl=4.8000E-12 Vpk=27 mfg=Rohm type=Zener)