.model UDZV6_2B D(Is=149.54E-18 N=1.0155 Rs=.21260 Ikf=1.2516 Cjo=23.000E-12 M=.37190 Vj=.75178 Isr=0.5007E-12 Nr=4.6500 Bv=6.1950 Ibv=5.0000E-3 Tt=65.000E-9 Nbv=0.2000 Tbv1=0.3500E-3 Nbvl=9.7000 Ibvl=3.7000E-6 Vpk=6.2 mfg=Rohm type=Zener)