.model UDZV39B D(Is=8.4029E-15 N=1.1328 Rs=0.2293 Ikf=0.1330 Cjo=6.7000E-12 M=0.2770 Vj=0.6419 Isr=2.7351E-12 Nr=4.8500 Bv=38.920 Ibv=1.0000E-3 Tt=226.00E-9 Nbv=3.0000 Tbv1=0.9500E-3 Nbvl=225.00 Ibvl=2.3000E-12 Vpk=39 mfg=Rohm type=Zener)