.model UDZV33B D(Is=4.3739E-15 N=1.1094 Rs=.26228 Ikf=.62832 Cjo=7.6000E-12 M=.325085 Vj=.77316 Isr=6.0323E-13 Nr=3.1000 Bv=33.0 Ibv=1.0000E-3 Tt=1.7000E-7 Nbv=1.8200 Tbv1=0.8400E-3 Nbvl=245.00 Ibvl=1.1000E-12 Vpk=33 mfg=Rohm type=Zener)