.model UFZV24B D(Is=896.82E-18 N=1.0244 Rs=.2447 Ikf=4.4894 Eg=1.14 Cjo=48.379E-12 M=0.3271 Vj=0.6125 Isr=1.5625E-12 Nr=2.6 Bv=23.41 Ibv=5.0000E-3 Nbv=0.4 Tbv1=0.8200E-3 Vpk=24 mfg=Rohm type=Zener)