.model UFZV30B D(Is=544.50E-18 N=1.0055 Rs=0.2237 Ikf=0.1319 Cjo=40.795E-12 M=0.3257 Vj=0.6153 Isr=1.3508E-12 Nr=3.4 Bv=28.78 Ibv=5.0000E-3 Nbv=0.76 Tbv1=0.8000E-3 Nbvl=36 Ibvl=1.0000E-9 Vpk=30 mfg=Rohm type=Zener)