.model UFZV22B D(Is=593.82E-18 N=1.0170 Rs=0.2108 Ikf=14.607 Eg=1.13 Cjo=52.899E-12 M=0.3212 Vj=0.5826 Isr=1.4371E-12 Nr=2.85 Bv=21.38 Ibv=5.0000E-3 Nbv=0.3 Tbv1=0.7700E-3 Nbvl=30 Ibvl=1.0000E-9 Vpk=22 mfg=Rohm type=Zener)