.model UFZV16B D(Is=598.54E-18 N=1.0159 Rs=0.217 Ikf=0.7677 Eg=1.14 Cjo=71.550E-12 M=0.3258 Vj=0.5676 Isr=1.8645E-12 Nr=2.85 Bv=15.845 Ibv=10.000E-3 Nbv=0.5 Tbv1=0.7500E-3 Nbvl=48 Ibvl=0.2000E-9 Vpk=16 mfg=Rohm type=Zener)