.model UFZV15B D(Is=346.72E-18 N=0.9997 Rs=0.2621 Ikf=111.34 Eg=1.13 Cjo=80.640E-12 M=0.3269 Vj=0.5515 Isr=2.8386E-12 Nr=2.74 Bv=14.42 Ibv=10.000E-3 Nbv=0.38 Tbv1=0.7000E-3 Nbvl=31.1 Ibvl=1.0000E-9 Vpk=15 mfg=Rohm type=Zener)