.model UFZV7_5B D(Is=668.94E-18 N=1.0068 Rs=0.1826 Ikf=124.53E-3 Eg=1.14 Cjo=170.83E-12 M=0.3277 Vj=0.5765 Isr=0.1769E-9 Nr=5 Bv=7.31 Ibv=20.000E-3 Nbv=0.6 Tbv1=0.450E-3 Nbvl=12.6 Ibvl=85.000E-6 Vpk=7.5 mfg=Rohm type=Zener)