.model UFZV27B D(Is=627.69E-18 N=1.0114 Rs=0.2008 Ikf=0.3096 Eg=1.14 Cjo=43.068E-12 M=0.3282 Vj=0.6207 Isr=1.4362E-12 Nr=3.8 Bv=25.9 Ibv=5.0000E-3 Nbv=0.7 Tbv1=0.8350E-3 Vpk=27 mfg=Rohm type=Zener)