.model UFZV12B D(Is=874.07E-18 N=1.0191 Rs=0.3004 Ikf=129.14 Eg=1.13 Cjo=86.067E-12 M=0.3312 Vj=0.6727 Isr=2.4865E-12 Nr=2.7 Bv=11.85 Ibv=10.000E-3 Nbv=0.35 Tbv1=0.6900E-3 Nbvl=31.1 Ibvl=1.0000E-9 Trs1=-0.001 Vpk=12 mfg=Rohm type=Zener)