.model UMZ27N D(Is=280.99E-18 N=1.0259 Rs=.1503 Ikf=.14008 Cjo=9.6438E-12 M=.32672 Vj=.81913 Isr=33.534E-12 Bv=26.860 Ibv=5.0000E-3 Tt=265.46E-9 Nbv=0.3 Tbv1=0.00075 Vpk=27 mfg=Rohm type=Zener)