.model UMZC6_8N D(Is=52.612E-18 N=1.0352 Rs=.44731 Ikf=65.435E-3 Cjo=3.1013E-12 M=.34153 Vj=.80624 Isr=25.0689E-12 Nr=1.8500 Bv=6.7900 Ibv=4.9999E-3 Tt=137.06E-9 Nbv=0.5 Tbv1=0.00047 Nbvl=10 Ibvl=1.0000E-7 Vpk=6.8 mfg=Rohm type=Zener)