.model UPSC600 D(Is=2p Rs=.33 N=1.5 Cjo=50p M=.3 Iave=1 Vpk=600 mfg=Microsemi type=Schottky)