.model XP-E2-WHT D(IS=5.01824E-16 N=3.36413016 RS=0.244130334 XTI=40.92995615 IKF=0 EG=2.5000 mfg=CREE Vpk=5)