.model ZLLS2000 D(Is=2u Rs=.06 N=1 Cjo=182p M=.3 Eg=.69 Iave=1 Vpk=40 mfg=Zetex type=Schottky)