.model ZLLS1000 D(Is=750n Rs=.13 N=1 Cjo=76p M=.3 Eg=.69 Iave=1 Vpk=40 mfg=Zetex type=Schottky)