.model 2N3391A  NPN(Is=12.03f Xti=3 Eg=1.11 Vaf=37.37 Bf=427.8 Ne=1.971 Ise=2.953p Ikf=.1072 Xtb=1.5 Br=4.379 Nc=2 Isc=0 Ikr=0 Rc=1 Cjc=5.777pMjc=.3199 Vjc=.75 Fc=.5 Cje=8.307p Mje=.384 Vje=.75 Tr=701.7p Tf=385.4p Itf=.17 Vtf=3 Xtf=8 Rb=10 Vceo=25 Icrating=500m mfg=Fairchild)