.model 2N4126   PNP(Is=1.41f Xti=3 Eg=1.11 Vaf=18.7 Bf=203.7 Ne=1.5 Ise=0 Ikf=80m Xtb=1.5 Br=4.924 Nc=2 Isc=0 Ikr=0 Rc=2.5 Cjc=9.728pMjc=.5776 Vjc=.75 Fc=.5 Cje=8.063p Mje=.3677 Vje=.75 Tr=33.23n Tf=179.3p Itf=.4 Vtf=4 Xtf=6 Rb=10 Rb=10 Vceo=25 Icrating=200m mfg=Fairchild)