.model 2N4403   PNP(Is=650.6E-18 Xti=3 Eg=1.11 Vaf=115.7 Bf=216.2 Ne=1.829 Ise=58.72f Ikf=1.079 Xtb=1.5 Br=3.578 Nc=2 Isc=0 Ikr=0 Rc=.715 Cjc=14.76pMjc=.5383 Vjc=.75 Fc=.5 Cje=19.82p Mje=.3357 Vje=.75 Tr=111.6n Tf=603.7p Itf=.65 Vtf=5 Xtf=1.7 Rb=10 Vceo=40 Icrating=600m mfg=Fairchild)