.model 2N5210   NPN(Is=5.911f Xti=3 Eg=1.11 Vaf=62.37 Bf=809.9 Ne=1.358 Ise=5.911f Ikf=14.26m Xtb=1.5 Br=1.287 Nc=2 Isc=0 Ikr=0 Rc=1.61 Cjc=4.017pMjc=.3174 Vjc=.75 Fc=.5 Cje=4.973p Mje=.4146 Vje=.75 Tr=4.68n Tf=820.9p Itf=.35 Vtf=4 Xtf=7 Rb=10 Vceo=50 Icrating=100m mfg=Fairchild)