.model 2SA1577 PNP(Is=60.000E-15 Bf=194.09 Vaf=31.854 Ikf=1.9855 Ise=60.000E-15 Ne=1.4487 Br=8.8685 Var=100 Ikr=59.046E-3 Isc=60.100E-12 Nc=1.7430 Nk=1.0032 Re=.11 Rb=1.7439 Rc=.25957 Cje=60.611E-12 Mje=.52038 Cjc=21.129E-12 Mjc=.40433 Tf=14.874E-12 Xtf=121.15 Vtf=54.428 Itf=27.783E-3 Tr=102.06E-9 Xtb=1.5000 Vceo=32 Icrating=0.5 mfg=Rohm)