.model 2SA1036K PNP(Is=60f Bf=194.1 Vaf=31.85 Ikf=1.986 Ise=60f Ne=1.449 Br=8.869 Var=100 Ikr=59.05m Isc=60.1p Nc=1.743 Nk=1.003 Re=110m Rb=1.744 Rc=259.6m Cje=60.61p Mje=520.4m Cjc=21.13p Mjc=404.3m Tf=14.87p Xtf=121.2 Vtf=54.43 Itf=27.78m Tr=102.1n Xtb=1.5 Vceo=32 Icrating=0.5 mfg=Rohm)