.model 2SA2094 PNP(Is=1.0000E-12 Bf=237.46 Vaf=100 Ikf=3.7116 Ise=1.0000E-12 Ne=1.4875 Br=3.4075 Var=100 Ikr=.23214 Isc=19.134E-12 Nc=1.7098 Nk=.86947 Re=.12 Rb=.75694 Rc=25.941E-3 Cje=248.08E-12 Mje=.44606 Cjc=113.19E-12 Mjc=.56719 Tf=407.71E-12 Xtf=4.1307 Vtf=5.4891 Itf=5.0161 Tr=96.895E-9 Xtb=1.5000 Vceo=60 Icrating=2 mfg=Rohm)