.model 2SA2071P5 PNP(Is=700.00E-15 Bf=192.39 Vaf=100 Ikf=6.8965 Ise=700.00E-15 Ne=1.7521 Br=24.020 Var=100 Ikr=32.385E-3 Isc=57.252E-12 Nc=1.4443 Nk=.76838 Re=60.000E-3 Rb=.81034 Rc=7.5899E-3 Cje=596.75E-12 Mje=.41455 Cjc=158.94E-12 Mjc=.43434 Tf=594.99E-12 Xtf=544.41 Vtf=295.06 Itf=743.35 Tr=173.07E-9 Xtb=1.5000 Vceo=60 Icrating=3 mfg=Rohm)