.model 2SA2018 PNP(Is=110.00E-15 Bf=394.09 Vaf=21.739 Ikf=.52024 Ise=110.00E-15 Ne=1.6818 Br=28.439 Var=100 Ikr=1.3710 Isc=2.0285E-12 Nc=2.1543 Nk=.56117 Re=.1 Rb=4.9687 Rc=.26205 Cje=44.776E-12 Mje=.43395 Cjc=8.9662E-12 Mjc=.25891 Tf=371.39E-12 Xtf=24.384 Vtf=41.974 Itf=32.155 Tr=10.676E-9 Xtb=1.5000 Vceo=12 Icrating=0.5 mfg=Rohm)