.model 2SAR513R PNP(Is=220.00E-15 Bf=295.38 Vaf=29.700 Ikf=1.8760 Ise=220.00E-15 Ne=1.5781 Br=29.217 Var=100 Ikr=10.657 Isc=229.66E-15 Nc=1.2092 Nk=.79924 Re=40.000E-3 Rb=1.8898 Rc=.30868 Cje=119.67E-12 Vje=.93671 Mje=.39223 Cjc=42.157E-12 Vjc=.91676 Mjc=.50722 Tf=358.55E-12 Xtf=13.139 Vtf=20.331 Itf=6.8573 Tr=17.500E-9 Xtb=1.5000 Vceo=50 Icrating=1 mfg=Rohm)