.model 2SAR552P PNP(Is=520.00E-15 Bf=315.13 Vaf=26.700 Ikf=3.4558 Ise=520.00E-15 Ne=1.7403 Br=49.558 Var=15.400 Ikr=.66084 Isc=936.07E-15 Nc=2.8590 Nk=.62209 Re=35.000E-3 Rb=.75418 Rc=.12127 Cje=242.81E-12 Vje=1.0272 Mje=.49015 Cjc=84.668E-12 Vjc=1.0523 Mjc=.55603 Tf=409.23E-12 Xtf=527.57 Vtf=34.767 Itf=68.903 Tr=6.1000E-9 Xtb=1.5000 Vceo=30 Icrating=3 mfg=Rohm)