.model 2SAR562F3 PNP(Is=2.5000E-12 Bf=359.86 Vaf=14.659 Ikf=11.562 Ise=2.5000E-12 Ne=1.8288 Br=169.94 Var=9.4830 Ikr=3.8865 Isc=38.176E-12 Nc=2.9970 Nk=.52435 Re=14.000E-3 Rb=1.1560 Rc=30.146E-3 Cje=745.29E-12 Vje=1.3667 Mje=.58522 Cjc=257.52E-12 Vjc=.80268 Mjc=.45961 Tf=57.974E-12 Xtf=18.198 Vtf=30.005 Itf=49.068E-3 Tr=2.0000E-9 Xtb=1.5000 Tre1=0.004 Vceo=30 Icrating=6 mfg=Rohm)