.model 2SAR564F3 PNP(Is=2.0000E-12 Bf=255 Vaf=37.097 Ikf=17 Ise=2.0000E-12 Ne=1.8500 Br=29.401 Var=19.600 Ikr=1.3269 Isc=13.478E-12 Nc=1.4030 Nk=.88826 Rb=1.2624 Rc=66.654E-3 Cje=1.0084E-9 Vje=.84726 Mje=.40026 Cjc=180.18E-12 Vjc=.66714 Mjc=.44694 Tf=291.81E-12 Xtf=2.5531 Vtf=66.274 Itf=.5 Tr=29E-9 Xtb=1.5000 Quasimod=1 Gamma=0.6E-8 Rco=0.55 Trc1=0.002 Vceo=80 Icrating=4 mfg=Rohm)