.model 2SAR502UB PNP(Is=100f Bf=505.1 Vaf=32.26 Ikf=363.3m Ise=100.1f Ne=2 Br=136.3 Var=17.82 Ikr=10.01m Isc=267p Nc=1.974 Nk=610.4m Re=10m Rb=11.14 Rc=513.8m Cje=30.3p Vje=1.031 Mje=471.8m Cjc=16.79p Vjc=1.151 Mjc=577.3m Tf=267.5p Xtf=7.249 Vtf=11.66 Itf=1.506 Tr=4.206n Xtb=1.2 Tre1=40m Vceo=30 Icrating=0.5 mfg=Rohm)