.model 2SAR563F3 PNP(Is=2.0000E-12 Bf=285 Vaf=29.124 Ikf=17 Ise=2.0000E-12 Ne=1.8500 Br=45.167 Var=17.200 Ikr=.88454 Isc=5.4818E-9 Nc=2.9970 Nk=.69727 Rb=1.0539 Rc=59.983E-3 Cje=798.00E-12 Vje=1.0086 Mje=.47029 Cjc=236.06E-12 Vjc=.57035 Mjc=.40952 Tf=399.83E-12 Xtf=2.0805 Vtf=58.578 Itf=.5 Tr=15.470E-9 Xtb=1.5000 Quasimod=1 Gamma=0.2E-8 Rco=0.28 Trc1=0.002 Vceo=50 Icrating=6 mfg=Rohm)