.model 2SAR523EB PNP(Is=30.000E-15 Bf=261.99 Vaf=49.600 Ikf=.32531 Ise=30.000E-15 Ne=1.6165 Br=1.8916 Var=15.600 Ikr=4.7366 Isc=115.40E-15 Nc=1.2015 Nk=.86916 Re=.5 Rb=6.9265 Rc=1.0386 Cje=11.762E-12 Vje=1.0147 Mje=.47359 Cjc=6.6730E-12 Vjc=.7841 Mjc=.47924 Tf=447.20E-12 Xtf=113.42 Vtf=41.263 Itf=2.8279 Tr=123.00E-9 Xtb=1.5000 Vceo=50 Icrating=0.1 mfg=Rohm)