.model 2SAR572D3 PNP(Is=810.00E-15 Bf=352.48 Vaf=16.597 Ikf=6.0278 Ise=810.00E-15 Ne=1.9400 Br=100 Var=11.670 Ikr=12.411 Isc=1.3638E-12 Nc=1.3439 Nk=.74899 Re=35.000E-3 Rb=.8599 Rc=83.740E-3 Cje=431.58E-12 Vje=1.1468 Mje=.51738 Cjc=146.78E-12 Vjc=.91522 Mjc=.5003 Tf=346.41E-12 Xtf=.94818 Vtf=77.097 Itf=.2274 Tr=11.286E-9 Xtb=1.5000 Tre1=0.004 Vceo=30 Icrating=5 mfg=Rohm)