.model 2SAR583D3 PNP(Is=2.0000E-12 Bf=231.59 Vaf=39.406 Ikf=20 Ise=2.0018E-12 Ne=2 Br=42.186 Var=14.864 Ikr=19.980 Isc=48.419E-12 Nc=1.8417 Nk=.68072 Re=19.000E-3 Rb=.94514 Rc=42.076E-3 Cje=1.3584E-9 Vje=1.0366 Mje=.4734 Cjc=416.06E-12 Vjc=.82052 Mjc=.46908 Tf=553.56E-12 Xtf=4.0695 Vtf=13.760 Itf=7.8969 Tr=10.617E-9 Xtb=1.5000 Tre1=0.0035 Vceo=50 Icrating=7 mfg=Rohm)