.model 2SAR587D3 PNP(Is=1.6000E-12 Bf=172.54 Vaf=40.462 Ikf=19.999 Ise=1.6001E-12 Ne=2 Br=13.801 Var=17.100 Ikr=8.4340 Isc=145.88E-12 Nc=1.5718 Nk=.60942 Re=0.02 Rb=.72062 Rc=55.426E-3 Cje=1.3450E-9 Vje=1.0384 Mje=.47336 Cjc=254.31E-12 Vjc=.68929 Mjc=.49208 Tf=517.76E-12 Xtf=204.92 Vtf=135.27 Itf=64.672 Tr=132.67E-9 Xtb=1.5000 Tre1=0.005 Vceo=120 Icrating=3 mfg=Rohm)