.model 2SAR573D3 PNP(Is=1.0000E-12 Bf=249.03 Vaf=30.915 Ikf=3.6395 Ise=1.0000E-12 Ne=1.8457 Br=41.481 Var=15.500 Ikr=9.9806 Isc=19.870E-12 Nc=1.5605 Nk=.47493 Re=30.000E-3 Rb=1.1304 Rc=.14692 Cje=479.75E-12 Vje=1.2657 Mje=.50706 Cjc=135.28E-12 Vjc=.92867 Mjc=.50003 Tf=350.01E-12 Xtf=.96058 Vtf=67.051 Itf=.2836 Tr=20.559E-9 Xtb=1.5000 Vceo=50 Icrating=3 mfg=Rohm)