.model 2SAR512R PNP(Is=240.00E-15 Bf=307.48 Vaf=23.200 Ikf=4.9543 Ise=240.00E-15 Ne=1.9535 Br=39.080 Var=16.500 Ikr=.47302 Isc=241.00E-15 Nc=2.4667 Nk=.94551 Re=40.000E-3 Rb=2.1402 Rc=.205 Cje=128.66E-12 Vje=.96698 Mje=.45709 Cjc=50.453E-12 Vjc=1.0394 Mjc=.54257 Tf=301.41E-12 Xtf=3.9532 Vtf=16.722 Itf=1.7306 Tr=12.500E-9 Xtb=1.5000 Vceo=30 Icrating=2 mfg=Rohm)