.model 2SAR567F3 PNP(Is=1.4000E-12 Bf=200 Vaf=15.367 Ikf=17 Ise=1.4000E-12 Ne=1.7821 Br=17.658 Var=19.600 Ikr=7.0096 Isc=18.473E-12 Nc=1.3360 Nk=1.2978 Rb=.95271 Rc=91.416E-3 Cje=835.96E-12 Vje=.9453 Mje=.44793 Cjc=146.87E-12 Vjc=.56209 Mjc=.44155 Tf=210.79E-12 Xtf=6.7182 Vtf=3.7509 Itf=90.000E-3 Tr=67.703E-9 Xtb=1.5000 Quasimod=1 Gamma=4E-8 Rco=2 Trc1=0.0001 Vceo=120 Icrating=2.5 mfg=Rohm)