.model 2SAR372P5 PNP(Is=280.00E-15 Bf=141.29 Vaf=36.024 Ikf=7 Ise=280.02E-15 Ne=1.6258 Br=34.398 Var=33.600 Ikr=16.536 Isc=5.5324E-12 Nc=1.2657 Nk=1.0788 Re=50.000E-3 Rb=1.5423 Rc=.27111 Cje=519.12E-12 Vje=.94095 Mje=.43481 Cjc=88.923E-12 Vjc=.57143 Mjc=.46972 Tf=365.78E-12 Xtf=17.530 Vtf=16.571 Itf=2.8123 Tr=100.36E-9 Xtb=1.5000 Tre1=0.008 Vceo=120 Icrating=1.5 mfg=Rohm)