.model 2SAR574D3 PNP(Is=1.0000E-12 Bf=219.95 Vaf=38.029 Ikf=8.0242 Ise=1.0000E-12 Ne=1.7526 Br=16.875 Var=17.500 Ikr=3.4221 Isc=95.326E-12 Nc=2.0016 Nk=1.1474 Re=20.000E-3 Rb=1.8131 Rc=.13812 Cje=489.50E-12 Vje=1.0076 Mje=.4553 Cjc=117.04E-12 Vjc=.57699 Mjc=.4519 Tf=378.23E-12 Xtf=.7332 Vtf=84.075 Itf=.45295 Tr=50.607E-9 Xtb=1.5000 Tre1=0.01 Vceo=80 Icrating=2 mfg=Rohm)