.model 2SAR502U3 PNP(Is=100.00E-15 Bf=505.13 Vaf=32.262 Ikf=.36334 Ise=100.06E-15 Ne=2 Br=136.26 Var=17.820 Ikr=10.010E-3 Isc=267.00E-12 Nc=1.9737 Nk=.61038 Re=10.000E-3 Rb=11.144 Rc=.51382 Cje=30.295E-12 Vje=1.0308 Mje=.47183 Cjc=16.789E-12 Vjc=1.1506 Mjc=.57734 Tf=267.48E-12 Xtf=7.2490 Vtf=11.657 Itf=1.5061 Tr=4.2058E-9 Xtb=1.2000 Tre1=0.04 Vceo=30 Icrating=0.5 mfg=Rohm)