.model 2SAR586J PNP(Is=2.0000E-12 Bf=240.85 Vaf=31.147 Ikf=11.868 Ise=2.0000E-12 Ne=1.8500 Br=25.573 Var=10.321 Ikr=1.5993 Isc=5.0330E-12 Nc=1.6197 Nk=.61155 Re=22.000E-3 Rb=.39202 Rc=36.199E-3 Cje=1.2960E-9 Vje=1.0877 Mje=.48388 Cjc=337.10E-12 Vjc=.7328 Mjc=.46168 Tf=696.23E-12 Xtf=126.22 Vtf=76.106 Itf=110.44 Tr=23.212E-9 Xtb=1.5000 Tre1=0.005 Vceo=80 Icrating=5 mfg=Rohm)