.model 2SAR340P PNP(Is=250.00E-15 Bf=189.31 Vaf=257.28 Ikf=.99998 Ise=250.00E-15 Ne=1.5964 Br=.40769 Var=49.368 Ikr=6.9177 Isc=254.60E-15 Nc=1.0621 Nk=1.8285 Re=.3 Rb=11.216 Rc=2.8132 Cje=70.394E-12 Vje=.803 Mje=.37787 Cjc=48.807E-12 Vjc=1.4223 Mjc=.59914 Tf=9.3420E-9 Xtf=242.32 Vtf=56.620 Itf=1.8412 Tr=15.394E-6 Xtb=1.5000 Tre1=0.01 Vceo=400 Icrating=0.1 mfg=Rohm)