.model 2SAR522UB PNP(Is=20.000E-15 Bf=311.65 Vaf=25.800 Ikf=.59878 Ise=20.000E-15 Ne=1.4546 Br=10.057 Var=6.1100 Ikr=53.963E-3 Isc=413.88E-15 Nc=1.5497 Nk=.77781 Re=.25 Rb=5.2646 Rc=.45936 Cje=13.254E-12 Vje=.92613 Mje=.41651 Cjc=10.583E-12 Vjc=1.2414 Mjc=.55143 Tf=361.87E-12 Xtf=8.6164 Vtf=20.767 Itf=.86632 Tr=25.500E-9 Xtb=1.5000 Vceo=20 Icrating=0.2 mfg=Rohm)