.model 2SAR543R PNP(Is=800.00E-15 Bf=304.13 Vaf=58.300 Ikf=11.665 Ise=800.01E-15 Ne=1.6617 Br=31.813 Var=11.600 Ikr=5.8107 Isc=27.232E-12 Nc=2.1822 Nk=.98388 Re=20.000E-3 Rb=.23822 Rc=72.738E-3 Cje=446.41E-12 Vje=1.0456 Mje=.48681 Cjc=120.87E-12 Vjc=.74451 Mjc=.46428 Tf=389.75E-12 Xtf=4.2837 Vtf=26.023 Itf=1.9431 Tr=15.100E-9 Xtb=1.5000 Vceo=50 Icrating=3 mfg=Rohm)