.model 2SAR375P5 PNP(Is=620.00E-15 Bf=163.20 Vaf=32.809 Ikf=14.999 Ise=5.1897E-12 Ne=1.9980 Br=9.5008 Var=34.400 Ikr=.6664 Isc=611.26E-12 Nc=1.8419 Nk=1.5503 Re=10.000E-3 Rb=1.0513 Rc=.11759 Cje=525.25E-12 Vje=.92656 Mje=.43058 Cjc=86.862E-12 Vjc=.76609 Mjc=.50243 Tf=455.31E-12 Xtf=5.1477 Vtf=28.663 Itf=2.4688 Tr=192.46E-9 Xtb=1.5000 Tre1=0.01 Vceo=120 Icrating=1.5 mfg=Rohm)