.model 2SAR514P5 PNP(Is=210.00E-15 Bf=239.74 Vaf=41.200 Ikf=2.4755 Ise=474.84E-15 Ne=1.7638 Br=9.1977 Var=26.200 Ikr=.91518 Isc=852.09E-15 Nc=1.2356 Nk=.98791 Re=80.000E-3 Rb=2.5397 Rc=.43853 Cje=120.71E-12 Vje=.74112 Mje=.3555 Cjc=21.650E-12 Vjc=.78879 Mjc=.29529 Tf=378.45E-12 Xtf=12.388 Vtf=8.5169 Itf=4.1911 Tr=76.500E-9 Xtb=1.5000 Vceo=80 Icrating=0.7 mfg=Rohm)