.model 2SAR582D3 PNP(Is=2.8000E-12 Bf=299.63 Vaf=35.375 Ikf=20 Ise=2.8000E-12 Ne=2 Br=72.073 Var=10.981 Ikr=4.5519 Isc=4.1221E-12 Nc=2.6028 Nk=.68841 Re=17.000E-3 Rb=.79805 Rc=28.743E-3 Cje=1.2907E-9 Vje=.98505 Mje=.50032 Cjc=420.92E-12 Vjc=.77109 Mjc=.45176 Tf=564.16E-12 Xtf=3.7363 Vtf=12.413 Itf=8.3163 Tr=4.1742E-9 Xtb=1.5000 Tre1=0.0035 Vceo=30 Icrating=10 mfg=Rohm)