.model 2SB1705 PNP(Is=2.5000E-12 Bf=437.13 Vaf=11.399 Ikf=3.3939 Ise=2.5000E-12 Ne=2.0079 Br=121.78 Var=100 Ikr=1.3895 Isc=6.0713E-12 Nc=1.9587 Nk=.62951 Re=25.000E-3 Rb=.66437 Rc=17.421E-3 Cje=323.59E-12 Mje=.53874 Cjc=100.87E-12 Mjc=.4312 Tf=444.64E-12 Xtf=2.6388 Vtf=67.473 Itf=3.7597 Tr=6.4366E-9 Xtb=1.5000 Vceo=12 Icrating=3 mfg=Rohm)