.model 2SB1590K PNP(Is=200.00E-15 Bf=178.33 Vaf=12.200 Ikf=3 Ise=829.23E-15 Ne=2.0937 Br=41.925 Var=100 Ikr=.40214 Isc=17.775E-12 Nc=2.8896 Nk=.50213 Re=80.000E-3 Rb=2.9159 Rc=99.649E-3 Cje=143.88E-12 Mje=.42942 Cjc=65.705E-12 Mjc=.44672 Tf=595.44E-12 Xtf=10 Vtf=10 Itf=5.5000 Tr=8.5511E-9 Xtb=1.5000 Vceo=15 Icrating=1 mfg=Rohm)