.model 2SB1708 PNP(Is=3.8000E-12 Bf=470.25 Vaf=30.115 Ikf=8.4720 Ise=3.8000E-12 Ne=1.9770 Br=28.873 Var=100 Ikr=2.5384 Isc=821.44E-12 Nc=2.3924 Nk=.82023 Re=20.000E-3 Rb=.47964 Rc=15.767E-3 Cje=273.59E-12 Mje=.49411 Cjc=110.56E-12 Mjc=.38184 Tf=159.82E-12 Xtf=14.632 Vtf=1.8931 Itf=.27408 Tr=25.153E-9 Xtb=1.5000 Vceo=30 Icrating=3 mfg=Rohm)