.model 2SB1694 PNP(Is=400.00E-15 Bf=418.17 Vaf=30 Ikf=1.9086 Ise=400.00E-15 Ne=1.6342 Br=248.11 Var=100 Ikr=14.338 Isc=3.3973E-12 Nc=1.2942 Nk=.96066 Re=70.000E-3 Rb=2.2125 Rc=.30535 Cje=96.033E-12 Mje=.55512 Cjc=23.534E-12 Mjc=.4554 Tf=404.28E-12 Xtf=161.24 Vtf=.14046 Itf=15.584 Tr=14.264E-9 Xtb=1.5000 Vceo=30 Icrating=1 mfg=Rohm)