.model 2SB1730 PNP(Is=260.00E-15 Bf=435.07 Vaf=11.229 Ikf=1.2673 Ise=260.00E-15 Ne=2.0356 Br=214.53 Var=100 Ikr=6.0651E-3 Isc=464.05E-15 Nc=2.5092 Nk=.20425 Re=40.000E-3 Rb=3.1284 Rc=35.729E-3 Cje=192.88E-12 Mje=.6628 Cjc=87.706E-12 Mjc=.66324 Tf=275.90E-12 Xtf=3.5054 Vtf=92.551 Itf=2.3203 Tr=2.2345E-9 Xtb=1.5000 Vceo=12 Icrating=2 mfg=Rohm)