.model 2SB1197K PNP(Is=300f Bf=238.7 Vaf=100 Ikf=7.996 Ise=300f Ne=1.818 Br=24.97 Var=100 Ikr=8.684 Isc=20.67p Nc=1.488 Nk=1.23 Re=100m Rb=1.512 Rc=159.4m Cje=127.8p Mje=414m Cjc=41.58p Mjc=466.8m Tf=475.2p Xtf=26.77 Vtf=68.52 Itf=13.64 Tr=36.83n Xtb=1.5 Vceo=32 Icrating=0.8 mfg=Rohm)