.model 2SB1689 PNP(Is=500.00E-15 Bf=430.25 Vaf=8.5496 Ikf=1.1522 Ise=500.00E-15 Ne=1.7681 Br=62.537 Var=100 Ikr=.95012 Isc=791.42E-15 Nc=2.9288 Nk=.62728 Re=50.000E-3 Rb=2.4406 Rc=87.668E-3 Cje=98.302E-12 Mje=.58268 Cjc=35.215E-12 Mjc=.40433 Tf=323.63E-12 Xtf=8.8486 Vtf=11.678 Itf=7.9126 Tr=6.2090E-9 Xtb=1.5000 Vceo=12 Icrating=1.5 mfg=Rohm)