.model 2SB1707 PNP(Is=3.0000E-12 Bf=450.86 Vaf=18.171 Ikf=4.2278 Ise=3.0000E-12 Ne=2.1370 Br=90.160 Var=100 Ikr=1.5963 Isc=3.7104E-12 Nc=2.9824 Nk=.35512 Re=13.000E-3 Rb=.67846 Rc=21.160E-3 Cje=655.35E-12 Mje=.58268 Cjc=207.91E-12 Mjc=.46676 Tf=422.32E-12 Xtf=26.413 Vtf=7.2474 Itf=9.4610 Tr=4.6066E-9 Xtb=1.5000 Vceo=12 Icrating=4 mfg=Rohm)