.model 2SB1732 PNP(Is=750.00E-15 Bf=454.02 Vaf=17.700 Ikf=1.4117 Ise=750.00E-15 Ne=1.9049 Br=47.150 Var=100 Ikr=12.375 Isc=1.0844E-12 Nc=3.4598 Nk=.48699 Re=60.000E-3 Rb=1.2842 Rc=49.315E-3 Cje=98.302E-12 Mje=.58268 Cjc=35.215E-12 Mjc=.40433 Tf=348.37E-12 Xtf=33.341 Vtf=34.857 Itf=13.005 Tr=4.0813E-9 Xtb=1.5000 Vceo=12 Icrating=1.5 mfg=Rohm)