.model 2SB1706 PNP(Is=1.6000E-12 Bf=463.35 Vaf=27.685 Ikf=4.2798 Ise=1.6000E-12 Ne=2.0122 Br=23.981 Var=100 Ikr=1.4104 Isc=2.6323E-12 Nc=1.4037 Nk=.79309 Re=30.000E-3 Rb=.7377 Rc=25.494E-3 Cje=163.84E-12 Mje=.58268 Cjc=65.705E-12 Mjc=.44672 Tf=428.94E-12 Xtf=31.680 Vtf=60.272 Itf=7.1745 Tr=12.037E-9 Xtb=1.5000 Vceo=30 Icrating=2 mfg=Rohm)