.model 2SB1695K PNP(Is=400.00E-15 Bf=391.30 Vaf=24.052 Ikf=3.6894 Ise=400.00E-15 Ne=1.7816 Br=29.637 Var=100 Ikr=.36493 Isc=435.26E-15 Nc=1.2203 Nk=.85019 Re=40.000E-3 Rb=2.3875 Rc=87.888E-3 Cje=163.61E-12 Mje=.46852 Cjc=44.324E-12 Mjc=.46067 Tf=444.24E-12 Xtf=42.249 Vtf=42.569 Itf=10.590 Tr=22.814E-9 Xtb=1.5000 Vceo=30 Icrating=1.5 mfg=Rohm)