.model 2SB1710 PNP(Is=400.00E-15 Bf=463.77 Vaf=26.855 Ikf=3.8481 Ise=400.00E-15 Ne=1.8724 Br=13.222 Var=100 Ikr=.73543 Isc=417.32E-15 Nc=1.5434 Nk=.91307 Re=.1 Rb=.73217 Rc=57.674E-3 Cje=65.535E-12 Mje=.58268 Cjc=21.408E-12 Mjc=.41984 Tf=448.02E-12 Xtf=33.455 Vtf=140.32 Itf=21.397 Tr=24.678E-9 Xtb=1.5000 Vceo=30 Icrating=1 mfg=Rohm)