.model 2SB1427 PNP(Is=1.0000E-12 Bf=465.72 Vaf=9.7000 Ikf=2.4524 Ise=1.0000E-12 Ne=1.9208 Br=100.88 Var=100 Ikr=73.071E-3 Isc=160.34E-12 Nc=1.7538 Nk=.73634 Re=60.000E-3 Rb=.79297 Rc=36.877E-3 Cje=200.22E-12 Mje=.34085 Cjc=82.920E-12 Mjc=.38184 Tf=898.85E-12 Xtf=20.372 Vtf=28.697 Itf=5.3648 Tr=47.396E-9 Xtb=1.5000 Vceo=20 Icrating=2 mfg=Rohm)