.model 2SC4061K NPN(Is=18.000E-15 Bf=81.577 Vaf=25 Ikf=.25712 Ise=81.749E-15 Ne=1.5358 Br=1.3171 Var=100 Ikr=45.052E-3 Isc=182.96E-12 Nc=1.7055 Nk=1.0300 Rb=13.099 Rc=.56082 Cje=16.384E-12 Mje=.58268 Cjc=6.9100E-12 Mjc=.38184 Tf=1.4159E-9 Xtf=25.463 Vtf=53.765 Itf=.31527 Tr=484.85E-9 Xtb=1.5000 Vceo=300 Icrating=0.1 mfg=Rohm)