.model 2SC4618 NPN(Is=40.000E-15 Bf=378.97 Vaf=100 Ikf=.11754 Ise=403.75E-15 Ne=1.4655 Br=6.6209 Var=100 Ikr=11.942E-3 Isc=41.950E-12 Nc=2.0763 Nk=.82547 Rb=12.661 Rc=1.0143 Cje=3.8356E-12 Mje=.37142 Cjc=2.0001E-12 Mjc=.19187 Tf=299.22E-12 Xtf=26.349 Vtf=8.3572 Itf=1.0238 Tr=26.534E-9 Xtb=1.5000 Vceo=25 Icrating=0.05 mfg=Rohm)