.model 2SC4713K NPN(Is=400.00E-18 Bf=273.94 Vaf=58.401 Ikf=.11125 Ise=400.00E-18 Ne=1.4958 Br=123.13 Var=100 Ikr=2.7340E-3 Isc=111.15E-15 Nc=1.4605 Nk=.52322 Rb=30.550 Rc=1.2708 Cje=2.4548E-12 Mje=.24183 Cjc=1.3066E-12 Mjc=.10044 Tf=185.27E-12 Xtf=21.386 Vtf=12.035 Itf=5.6961 Tr=3.5165E-9 Xtb=1.5000 Vceo=6 Icrating=0.05 mfg=Rohm)