.model 2SC4083 NPN(Is=1.0000E-15 Bf=93.539 Vaf=100 Ikf=31.168E-3 Ise=175.74E-15 Ne=2.2255 Br=4.1981 Var=100 Ikr=1.5983 Isc=25.314E-15 Nc=1.5008 Nk=.20045 Rb=10 Rc=3.8727 Cje=2.3961E-12 Mje=.21324 Cjc=1.1921E-12 Mjc=.1498 Tf=34.367E-12 Xtf=26.703 Vtf=21.035 Itf=.73447 Tr=45.521E-9 Xtb=1.5000 Vceo=11 Icrating=0.05 mfg=Rohm)