.model 2SC4097 NPN(Is=5.0000E-12 Bf=207.37 Vaf=29.450 Ikf=2.2170 Ise=5.0000E-12 Ne=1.5942 Br=10.471 Var=100 Ikr=.25712 Isc=10.569E-12 Nc=1.2514 Nk=.94449 Re=80.000E-3 Rb=3.3961 Rc=.37728 Cje=46.388E-12 Mje=.43822 Cjc=40.036E-12 Mjc=.70664 Tf=514.26E-12 Xtf=16.727 Vtf=40.638 Itf=549.36 Tr=86.435E-9 Xtb=1.5000 Vceo=32 Icrating=0.5 mfg=Rohm)