.model 2SC5661 NPN(Is=2.0000E-15 Bf=90.208 Vaf=69.220 Ikf=.22544 Ise=2.0000E-15 Ne=1.3538 Br=4.2997 Var=100 Ikr=.78981 Isc=2.1585E-15 Nc=1.0516 Nk=.98009 Rb=15.286 Rc=2.4700 Cje=2.4548E-12 Mje=.24183 Cjc=1.5434E-12 Mjc=.20257 Tf=90.277E-12 Xtf=.9268 Vtf=24.898 Itf=72.879E-3 Tr=112.54E-9 Xtb=1.5000 Vceo=20 Icrating=0.05 mfg=Rohm)