.model 2SC5866 NPN(Is=270.00E-15 Bf=230.08 Vaf=100 Ikf=3.6536 Ise=270.00E-15 Ne=1.4864 Br=7.8806 Var=100 Ikr=.34994 Isc=7.6008E-12 Nc=1.4061 Nk=.76747 Re=75.000E-3 Rb=.31438 Rc=18.568E-3 Cje=280.43E-12 Mje=.45944 Cjc=38.343E-12 Mjc=.50476 Tf=607.77E-12 Xtf=121.43 Vtf=162.23 Itf=51.350 Tr=42.092E-9 Xtb=1.5000 Vceo=60 Icrating=2 mfg=Rohm)