.model 2SC5585 NPN(Is=130.00E-15 Bf=394.21 Vaf=31.700 Ikf=2.0336 Ise=130.00E-15 Ne=1.7644 Br=166.53 Var=100 Ikr=16.665 Isc=977.07E-15 Nc=1.4276 Nk=.73285 Re=.13 Rb=5.8745 Rc=.22758 Cje=43.128E-12 Mje=.38969 Cjc=12.019E-12 Mjc=.18215 Tf=270.44E-12 Xtf=29.534 Vtf=38.684 Itf=24.166 Tr=2.3199E-9 Xtb=1.5000 Vceo=12 Icrating=0.5 mfg=Rohm)