.model 2SC5824 NPN(Is=3.3000E-12 Bf=248.92 Vaf=100 Ikf=5.2602 Ise=3.3000E-12 Ne=1.7608 Br=7.4847 Var=100 Ikr=1.1308 Isc=8.9866E-12 Nc=3.3932 Nk=.87107 Re=60.000E-3 Rb=.41596 Rc=4.2090E-3 Cje=415.35E-12 Mje=.38396 Cjc=76.685E-12 Mjc=.50476 Tf=553.81E-12 Xtf=241.49 Vtf=120.05 Itf=247.46 Tr=60.677E-9 Xtb=1.5000 Vceo=60 Icrating=3 mfg=Rohm)