.model 2SC5658 NPN(Is=70f Bf=277.1 Vaf=114 Ikf=1 Ise=70f Ne=1.893 Br=11.57 Var=100 Ikr=112.7m Isc=1.023p Nc=1.326 Nk=718.7m Re=200m Rb=13.9 Rc=1.219 Cje=11.34p Mje=382.9m Cjc=4.023p Mjc=346.3m Tf=338.9p Xtf=4.045 Vtf=167.4 Itf=859.6m Tr=110.3n Xtb=1.5 Vceo=50 Icrating=0.15 mfg=Rohm)