.model 2SCR375P NPN(Is=800.00E-15 Bf=153.42 Vaf=4.8443 Ikf=1.5296 Ise=800.00E-15 Ne=1.5062 Br=39.462 Var=41.110 Ikr=2.4021 Isc=125.69E-12 Nc=1.5464 Nk=.69119 Re=50.000E-3 Rb=.5743 Rc=39.911E-3 Cje=479.27E-12 Vje=.7466 Mje=.35988 Cjc=46.626E-12 Vjc=.43755 Mjc=.42493 Tf=695.25E-12 Xtf=488.45 Vtf=269.93 Itf=15.733 Tr=39.000E-9 Xtb=1.2500 Tre1=0.004 Vceo=120 Icrating=1.5 mfg=Rohm)