.model 2SCR552P NPN(Is=380.00E-15 Bf=346.49 Vaf=88 Ikf=13.358 Ise=380.20E-15 Ne=1.6220 Br=86.406 Var=19 Ikr=2.3526 Isc=380.00E-15 Nc=1.2701 Nk=.99842 Re=30.000E-3 Rb=1.3796 Rc=89.865E-3 Cje=259.26E-12 Vje=.74817 Mje=.35387 Cjc=47.225E-12 Vjc=.57493 Mjc=.39869 Tf=432.25E-12 Xtf=8.2951 Vtf=4.2756 Itf=3.9270 Tr=9.0000E-9 Xtb=1.5000 Vceo=30 Icrating=3 mfg=Rohm)