.model 2SCR586D3 NPN(Is=2.6000E-12 Bf=273.90 Vaf=158.30 Ikf=18.019 Ise=2.6000E-12 Ne=1.5937 Br=112.84 Var=29.588 Ikr=2.2607 Isc=2.6551E-12 Nc=1.2035 Nk=.97486 Re=20.000E-3 Rb=.71826 Rc=15.021E-3 Cje=1.3029E-9 Vje=.80718 Mje=.3685 Cjc=188.07E-12 Vjc=.5562 Mjc=.45478 Tf=643.60E-12 Xtf=310.61 Vtf=189.76 Itf=223.64 Tr=82.658E-9 Xtb=1.3000 Tre1=0.005 Vceo=80 Icrating=5 mfg=Rohm)