.model 2SCR583D3 NPN(Is=2.0000E-12 Bf=286.76 Vaf=170.27 Ikf=20 Ise=2.0001E-12 Ne=1.6311 Br=77.596 Var=23.248 Ikr=4.1393 Isc=9.0364E-12 Nc=1.3729 Nk=.63653 Re=19.000E-3 Rb=.85931 Rc=25.804E-3 Cje=1.3270E-9 Vje=.74499 Mje=.35529 Cjc=196.02E-12 Vjc=1.3821 Mjc=.53791 Tf=479.74E-12 Xtf=29.947 Vtf=46.463 Itf=57.630 Tr=14.719E-9 Xtb=1.1000 Tre1=0.0035 Vceo=50 Icrating=7 mfg=Rohm)