.model 2SCR587D3 NPN(Is=1.6000E-12 Bf=201.04 Vaf=53.272 Ikf=20 Ise=1.6000E-12 Ne=1.5584 Br=49.529 Var=38.100 Ikr=1.8239 Isc=194.30E-12 Nc=1.5163 Nk=.9936 Re=1.0000E-3 Rb=4.7656 Rc=37.821E-3 Cje=1.3965E-9 Vje=1.0799 Mje=.41541 Cjc=102.59E-12 Vjc=1.5000 Mjc=.54141 Tf=572.22E-12 Xtf=495.20 Vtf=273.55 Itf=78.544 Tr=161.28E-9 Xtb=1.2500 Tre1=0.1 Vceo=120 Icrating=3 mfg=Rohm)