.model 2SCR562F3 NPN(Is=2.7000E-12 Bf=359.65 Vaf=47.246 Ikf=17.794 Ise=5.1063E-12 Ne=1.6800 Br=164.76 Var=13.821 Ikr=10.533 Isc=5.5359E-12 Nc=2.3044 Nk=.54944 Re=2.0000E-3 Rb=2.3516 Rc=35.434E-3 Cje=711.58E-12 Vje=.77165 Mje=.37592 Cjc=152.75E-12 Vjc=.55108 Mjc=.39358 Tf=359.46E-12 Xtf=415.35 Vtf=248.34 Itf=34.139 Tr=7.0435E-9 Xtb=1.5000 Tre1=0.05 Vceo=30 Icrating=6 mfg=Rohm)