.model 2SCR582D3 NPN(Is=2.3000E-12 Bf=310.68 Vaf=139.62 Ikf=20 Ise=2.3000E-12 Ne=1.6184 Br=125.93 Var=24.277 Ikr=2.8253 Isc=3.3073E-12 Nc=1.4157 Nk=.52003 Re=17.000E-3 Rb=.74724 Rc=22.970E-3 Cje=1.3051E-9 Vje=.75113 Mje=.36121 Cjc=241.40E-12 Vjc=1.1196 Mjc=.45239 Tf=536.82E-12 Xtf=11.901 Vtf=29.769 Itf=42.963 Tr=4.1321E-9 Xtb=1.1000 Tre1=0.0035 Vceo=30 Icrating=10 mfg=Rohm)