.model 2SCR543R NPN(Is=600.00E-15 Bf=300.64 Vaf=235 Ikf=16.324 Ise=600.00E-15 Ne=1.5980 Br=59.428 Var=33.400 Ikr=2.9134 Isc=4.3640E-12 Nc=1.4018 Nk=.99234 Re=17.000E-3 Rb=.1548 Rc=35.492E-3 Cje=490.47E-12 Vje=.73612 Mje=.353 Cjc=70.768E-12 Vjc=.59403 Mjc=.43861 Tf=421.19E-12 Xtf=15.231 Vtf=230.49 Itf=7.2504 Tr=18.500E-9 Xtb=1.5000 Vceo=50 Icrating=3 mfg=Rohm)