.model 2SCR564F3 NPN(Is=2.0000E-12 Bf=300 Vaf=29.246 Ikf=18 Ise=2.0000E-12 Ne=1.7178 Br=450 Var=38.300 Ikr=.30057 Isc=31.743E-12 Nc=1.3779 Nk=.35031 Rb=2.5634 Rc=48.903E-3 Cje=952.67E-12 Vje=.71635 Mje=.34272 Cjc=96.470E-12 Vjc=.41468 Mjc=.39636 Tf=443.74E-12 Xtf=127.97 Vtf=59.050 Itf=30.284 Tr=10E-9 Xtb=1.5000 Quasimod=1 Gamma=6E-8 Rco=1.4 Trc1=0.003 Vceo=80 Icrating=4 mfg=Rohm)