.model 2SCR341Q NPN(Is=150.00E-15 Bf=234.94 Vaf=820.07 Ikf=.44072 Ise=150.00E-15 Ne=1.4185 Br=1.4068 Var=45.121 Ikr=3.2001 Isc=122.24E-12 Nc=1.4956 Nk=.94086 Re=.25 Rb=6.3157 Rc=1.2890 Cje=80.643E-12 Vje=.59389 Mje=.31734 Cjc=18.294E-12 Vjc=.48804 Mjc=.39336 Tf=6.4588E-9 Xtf=2.5077 Vtf=156.15 Itf=.26687 Tr=15.769E-6 Xtb=1.5000 Tre1=0.015 Vceo=400 Icrating=0.1 mfg=Rohm)