.model 2SCR512P5 NPN(Is=400.00E-15 Bf=309.94 Vaf=89.700 Ikf=4.6721 Ise=400.00E-15 Ne=1.6749 Br=74.978 Var=100 Ikr=9.1517 Isc=427.00E-15 Nc=1.2408 Nk=.86551 Re=60.000E-3 Rb=.95732 Rc=.14944 Cje=119.28E-12 Vje=.90437 Mje=.34878 Cjc=26.288E-12 Vjc=.63292 Mjc=.34258 Tf=438.11E-12 Xtf=48.471 Vtf=6.9833 Itf=12.924 Tr=6.5000E-9 Xtb=1.5000 Vceo=30 Icrating=2 mfg=Rohm)