.model 2SCR572D3 NPN(Is=850.00E-15 Bf=367.89 Vaf=63.228 Ikf=20 Ise=850.00E-15 Ne=1.6320 Br=124.23 Var=22.400 Ikr=3.2891 Isc=3.7128E-12 Nc=1.6913 Nk=1.0160 Re=26.000E-3 Rb=.56298 Rc=47.958E-3 Cje=449.28E-12 Vje=.75832 Mje=.3575 Cjc=92.204E-12 Vjc=.55559 Mjc=.39315 Tf=415.09E-12 Xtf=416.23 Vtf=211.10 Itf=51.203 Tr=11.737E-9 Xtb=1.5000 Tre1=0.004 Vceo=30 Icrating=5 mfg=Rohm)