.model 2SCR574D3 NPN(Is=1.0000E-12 Bf=226.21 Vaf=103.70 Ikf=15 Ise=1.0000E-12 Ne=1.5805 Br=78.835 Var=43 Ikr=1.3435 Isc=5.2175E-12 Nc=1.2893 Nk=1.0840 Re=30.000E-3 Rb=1.4908 Rc=55.610E-3 Cje=496.19E-12 Vje=.76899 Mje=.35078 Cjc=63.898E-12 Vjc=.75325 Mjc=.4557 Tf=498.62E-12 Xtf=454.99 Vtf=242.95 Itf=83.905 Tr=33.570E-9 Xtb=1.2500 Tre1=0.005 Vceo=80 Icrating=2 mfg=Rohm)