.model 2SCR567F3 NPN(Is=1.4000E-12 Bf=220 Vaf=15.129 Ikf=18 Ise=1.4000E-12 Ne=1.8105 Br=450 Var=37 Ikr=2.1266 Isc=15.988E-12 Nc=1.2956 Nk=1.2416 Rb=3.7547 Rc=42.528E-3 Cje=853.84E-12 Vje=.66984 Mje=.34817 Cjc=81.677E-12 Vjc=.39499 Mjc=.34275 Tf=523.39E-12 Xtf=121.27 Vtf=47.479 Itf=18.323 Tr=70.000E-9 Xtb=1.5000 Quasimod=1 Gamma=8E-8 Rco=2.3 Trc1=0.001 Vceo=120 Icrating=2.5 mfg=Rohm)