.model 2SCR502U3 NPN(Is=100.00E-15 Bf=403.87 Vaf=68.843 Ikf=1.6599 Ise=100.01E-15 Ne=2 Br=55.223 Var=29.235 Ikr=.18658 Isc=34.519E-12 Nc=1.7072 Nk=1.0542 Re=50.000E-3 Rb=8.6458 Rc=.25745 Cje=31.445E-12 Vje=.70106 Mje=.35283 Cjc=7.8893E-12 Vjc=.50532 Mjc=.28027 Tf=408.62E-12 Xtf=5.3069 Vtf=58.046 Itf=.83074 Tr=6.9327E-9 Xtb=.9 Tre1=0.01 Vceo=30 Icrating=0.5 mfg=Rohm)