.model 2SCR554R NPN(Is=550.00E-15 Bf=277.41 Vaf=103 Ikf=3.2386 Ise=550.00E-15 Ne=1.5553 Br=33.281 Var=28.600 Ikr=11.836 Isc=8.1161E-9 Nc=2.6073 Nk=.8866 Re=25.000E-3 Rb=2.7470 Rc=92.861E-3 Cje=120.16E-12 Vje=.77848 Mje=.36337 Cjc=14.464E-12 Vjc=1.2084 Mjc=.38033 Tf=505.30E-12 Xtf=22.139 Vtf=16.772 Itf=10.670 Tr=33.600E-9 Xtb=1.5000 Vceo=80 Icrating=1.5 mfg=Rohm)