.model 2SCR573D3 NPN(Is=1.0000E-12 Bf=305.78 Vaf=100.77 Ikf=15 Ise=9.2726E-12 Ne=1.9977 Br=55.087 Var=30 Ikr=4.3418 Isc=11.133E-12 Nc=1.4838 Nk=1.0139 Re=35.000E-3 Rb=.50911 Rc=35.473E-3 Cje=466.80E-12 Vje=.77265 Mje=.35972 Cjc=69.345E-12 Vjc=.56296 Mjc=.42599 Tf=434.78E-12 Xtf=400.18 Vtf=196.30 Itf=82.816 Tr=14.336E-9 Xtb=1.5000 Vceo=50 Icrating=3 mfg=Rohm)