.model 2SCR523EB NPN(Is=17.000E-15 Bf=283.04 Vaf=176 Ikf=1.3063 Ise=17.000E-15 Ne=1.4730 Br=7.6375 Var=18.300 Ikr=.19825 Isc=388.13E-15 Nc=1.2590 Nk=.97097 Re=.4 Rb=1.9155 Rc=.30627 Cje=15.684E-12 Vje=.81562 Mje=.38559 Cjc=3.9527E-12 Vjc=.85366 Mjc=.35568 Tf=323.99E-12 Xtf=65.445 Vtf=49.139 Itf=2.3010 Tr=129.00E-9 Xtb=1.5000 Vceo=50 Icrating=0.1 mfg=Rohm)