.model 2SCR522EB NPN(Is=25.000E-15 Bf=280.11 Vaf=59.300 Ikf=1.0185 Ise=25.001E-15 Ne=1.5688 Br=7.6500 Var=11.400 Ikr=.12432 Isc=548.77E-15 Nc=1.3139 Nk=.94463 Re=.3 Rb=3.2380 Rc=.24655 Cje=15.963E-12 Vje=.65372 Mje=.34399 Cjc=5.7083E-12 Vjc=.61423 Mjc=.36804 Tf=293.01E-12 Xtf=318.53 Vtf=83.819 Itf=9.7266 Tr=51.200E-9 Xtb=1.5000 Vceo=20 Icrating=0.2 mfg=Rohm)