.model 2SCR563F3 NPN(Is=2.2000E-12 Bf=333.70 Vaf=82.919 Ikf=18 Ise=2.2000E-12 Ne=1.6880 Br=450 Var=37 Ikr=.28996 Isc=18.161E-12 Nc=1.4033 Nk=.45878 Rb=1.1768 Rc=45.490E-3 Cje=785.69E-12 Vje=.73334 Mje=.36041 Cjc=131.20E-12 Vjc=.39063 Mjc=.33491 Tf=432.91E-12 Xtf=128.84 Vtf=51.048 Itf=25.569 Tr=2.4E-9 Xtb=1.5000 Quasimod=1 Gamma=1E-8 Rco=0.5 Trc1=0.003 Vceo=50 Icrating=6 mfg=Rohm)