.model 2SD1757K NPN(Is=200.00E-15 Bf=276.12 Vaf=76.825 Ikf=1.8049 Ise=200.00E-15 Ne=1.8936 Br=103.58 Var=100 Ikr=.15279 Isc=3.5422E-12 Nc=1.4410 Re=.1 Rb=3.0881 Rc=.10848 Cje=119.00E-12 Mje=.39708 Cjc=39.449E-12 Mjc=.36316 Tf=522.72E-12 Xtf=131.42 Vtf=91.516 Itf=9.2556 Tr=10.295E-9 Xtb=1.5000 Vceo=15 Icrating=0.5 mfg=Rohm)