.model 2SD2670 NPN(Is=3.0000E-12 Bf=463.17 Vaf=30.958 Ikf=7.4258 Ise=3.0000E-12 Ne=2.1623 Br=219.58 Var=100 Ikr=1.6647 Isc=3.0000E-12 Nc=2.0433 Nk=.49844 Re=30.000E-3 Rb=.97593 Rc=15.594E-3 Cje=327.67E-12 Mje=.58268 Cjc=103.96E-12 Mjc=.46676 Tf=332.69E-12 Xtf=12.849 Vtf=13.478 Itf=7.8713 Tr=3.8826E-9 Xtb=1.5000 Vceo=12 Icrating=3 mfg=Rohm)