.model 2SD2153 NPN(Is=2.0000E-12 Bf=1.3807E3 Vaf=23.841 Ikf=1.6517 Ise=2.0000E-12 Ne=2.1217 Br=83.056 Var=100 Ikr=.2628 Isc=2.0000E-12 Nc=5.0113 Re=70.000E-3 Rb=.47007 Rc=14.429E-3 Cje=196.60E-12 Mje=.58268 Cjc=73.348E-12 Mjc=.45226 Tf=407.47E-12 Xtf=129.56 Vtf=13.874 Itf=9.8498 Tr=17.625E-9 Xtb=1.5000 Vceo=25 Icrating=2 mfg=Rohm)