.model 2SD2672 NPN(Is=4.5000E-12 Bf=435.97 Vaf=33.183 Ikf=21.192 Ise=94.431E-12 Ne=4.9671 Br=193.52 Var=100 Ikr=1.1203 Isc=4.6520E-12 Nc=2.7304 Nk=.4348 Re=15.000E-3 Rb=.69908 Rc=15.308E-3 Cje=655.35E-12 Mje=.58268 Cjc=207.91E-12 Mjc=.46676 Tf=401.01E-12 Xtf=4.8220 Vtf=20.909 Itf=2.6343 Tr=3.1162E-9 Xtb=1.5000 Vceo=12 Icrating=4 mfg=Rohm)