.model 2SD2671 NPN(Is=2.0000E-12 Bf=502.57 Vaf=54.256 Ikf=11.644 Ise=2.0000E-12 Ne=1.9559 Br=67.035 Var=100 Ikr=1.7498 Isc=16.329E-12 Nc=1.5722 Nk=.96397 Re=40.000E-3 Rb=1.1071 Rc=9.8972E-3 Cje=458.74E-12 Mje=.58268 Cjc=65.705E-12 Mjc=.44672 Tf=365.94E-12 Xtf=1.6862 Vtf=50.251 Itf=1.7381 Tr=6.9000E-9 Xtb=1.5000 Vceo=30 Icrating=2 mfg=Rohm)