.model 2SD2537 NPN(Is=1.4000E-12 Bf=1.1790E3 Vaf=22.200 Ikf=5.5281 Ise=1.4000E-12 Ne=1.9029 Br=60.245 Var=100 Ikr=.79198 Isc=1.5775E-12 Nc=2.1625 Nk=.84174 Re=50.000E-3 Rb=.98045 Rc=35.460E-3 Cje=202.04E-12 Mje=.52038 Cjc=65.705E-12 Mjc=.44672 Tf=527.26E-12 Xtf=45.284 Vtf=31.121 Itf=22.741 Tr=14.999E-9 Xtb=1.5000 Vceo=25 Icrating=1.2 mfg=Rohm)