.model 2SD2656 NPN(Is=400.00E-15 Bf=413.31 Vaf=30 Ikf=2.4205 Ise=2.1950E-12 Ne=1.8979 Br=51.833 Var=100 Ikr=.79315 Isc=1.5842E-9 Nc=2.1922 Nk=.98841 Re=70m Rb=2.4948 Rc=.10728 Cje=91.854E-12 Mje=.40813 Cjc=15.894E-12 Mjc=.43434 Tf=323.06E-12 Xtf=365.63 Vtf=123.24 Itf=80.819 Tr=32.978E-9 Xtb=1.5000 Vceo=30 Icrating=1 mfg=Rohm)