.model 2SD2444K NPN(Is=150.00E-15 Bf=203.21 Vaf=12.200 Ikf=3.1728 Ise=150.00E-15 Ne=1.7037 Br=104.58 Var=100 Ikr=4.0956 Isc=2.9689E-12 Nc=1.5565 Nk=.35334 Re=70.000E-3 Rb=.5652 Rc=.11238 Cje=131.07E-12 Mje=.58268 Cjc=41.460E-12 Mjc=.38184 Tf=499.77E-12 Xtf=10.432 Vtf=12.558 Itf=12.273 Tr=4.4169E-9 Xtb=1.5000 Vceo=15 Icrating=1 mfg=Rohm)