.model 2SD2696 NPN(Is=120.00E-15 Bf=503.72 Vaf=50 Ikf=1.7237 Ise=120.00E-15 Ne=1.6045 Br=21.027 Var=100 Ikr=.17783 Isc=129.43E-15 Nc=2.8300 Nk=.99886 Re=50.000E-3 Rb=6.1795 Rc=.12793 Cje=36.741E-12 Mje=.40813 Cjc=9.6740E-12 Mjc=.38184 Tf=267.83E-12 Xtf=1.0526E3 Vtf=445.75 Itf=18.079 Tr=16.382E-9 Xtb=1.5000 Vceo=30 Icrating=0.4 mfg=Rohm)