.model 2SD2700 NPN(Is=260.00E-15 Bf=410.46 Vaf=7.3200 Ikf=1.6469 Ise=260.00E-15 Ne=2.2185 Br=126.90 Var=100 Ikr=1.5723 Isc=504.02E-15 Nc=2.1616 Nk=.25256 Re=40.000E-3 Rb=3.3043 Rc=42.038E-3 Cje=171.65E-12 Mje=.32801 Cjc=50.686E-12 Mjc=.33998 Tf=383.74E-12 Xtf=9.0295 Vtf=20.434 Itf=12.291 Tr=2.6172E-9 Xtb=1.5000 Vceo=12 Icrating=2 mfg=Rohm)