.model 2SD2351 NPN(Is=400.00E-15 Bf=1.3544E3 Vaf=69.931 Ikf=.16193 Ise=400.02E-15 Ne=1.6742 Br=9.6205 Var=100 Ikr=1.1285 Isc=725.25E-15 Nc=2.0260 Nk=.74645 Re=.3 Rb=16.704 Rc=.12233 Cje=27.484E-12 Mje=.37516 Cjc=6.5540E-12 Mjc=.31941 Tf=474.50E-12 Xtf=38.562 Vtf=63.249 Itf=2.3187 Tr=79.789E-9 Xtb=1.5000 Vceo=50 Icrating=0.15 mfg=Rohm)