.model 2SD2673 NPN(Is=600.00E-15 Bf=455.87 Vaf=54.256 Ikf=9.2032 Ise=600.00E-15 Ne=1.7935 Br=41.328 Var=100 Ikr=3.1331 Isc=1.2478E-12 Nc=2.4401 Nk=.93447 Re=15.000E-3 Rb=1.6072 Rc=31.107E-3 Cje=491.51E-12 Mje=.58268 Cjc=153.37E-12 Mjc=.50476 Tf=576.98E-12 Xtf=3.7520 Vtf=30.815 Itf=5.3135 Tr=18.944E-9 Xtb=1.5000 Vceo=30 Icrating=3 mfg=Rohm)