.model 2SD2701 NPN(Is=250.00E-15 Bf=376 Vaf=50.700 Ikf=7 Ise=250.01E-15 Ne=2.0972 Br=23.805 Var=100 Ikr=.73877 Isc=526.46E-15 Nc=1.4423 Nk=.78694 Re=40.000E-3 Rb=2.2913 Rc=50.448E-3 Cje=183.71E-12 Mje=.40813 Cjc=32.452E-12 Mjc=.40633 Tf=361.73E-12 Xtf=133.11 Vtf=4.5330 Itf=49.877 Tr=39.919E-9 Xtb=1.5000 Vceo=30 Icrating=1.5 mfg=Rohm)