.model 2SD2652 NPN(Is=200.00E-15 Bf=393.91 Vaf=33.033 Ikf=4.1227 Ise=200.00E-15 Ne=1.7999 Br=96.990 Var=100 Ikr=.4895 Isc=1.0697E-12 Nc=1.3880 Re=80.000E-3 Rb=2.3854 Rc=40.018E-3 Cje=71.942E-12 Mje=.42942 Cjc=27.268E-12 Mjc=.30828 Tf=358.51E-12 Xtf=25.307 Vtf=17.450 Itf=8.2253 Tr=5.3950E-9 Xtb=1.5000 Vceo=12 Icrating=1.5 mfg=Rohm)