.model 2SD2704K NPN(Is=250.00E-15 Bf=2.3219E3 Vaf=100 Ikf=25.778E-3 Ise=270.34E-15 Ne=1.8069 Br=45.088 Var=100 Ikr=9.4796 Isc=411.09E-15 Nc=2.0254 Nk=.54182 Re=.4 Rb=3.1823 Rc=58.585E-3 Cje=8.7706E-12 Mje=.66324 Cjc=15.709E-12 Mjc=.53302 Tf=3.8352E-9 Xtf=32.147 Vtf=472.13 Itf=85.294 Tr=7.0574E-9 Xtb=1.5000 Vceo=25 Icrating=0.3 mfg=Rohm)