.model 2SD2702 NPN(Is=200.00E-15 Bf=392.41 Vaf=30.003 Ikf=5.7833 Ise=200.00E-15 Ne=1.7970 Br=102.23 Var=100 Ikr=2.9839 Isc=592.84E-15 Nc=3.5432 Nk=.62615 Re=80.000E-3 Rb=3.0209 Rc=45.434E-3 Cje=99.045E-12 Mje=.40963 Cjc=27.268E-12 Mjc=.30828 Tf=218.29E-12 Xtf=10 Vtf=10 Itf=1 Tr=2.2110E-9 Xtb=1.5000 Vceo=12 Icrating=1.5 mfg=Rohm)