.model 2SD2703 NPN(Is=400.00E-15 Bf=450.89 Vaf=30.003 Ikf=3.5392 Ise=400.00E-15 Ne=1.5487 Br=26.558 Var=100 Ikr=10.108 Isc=1.8381E-12 Nc=1.3479 Nk=.95223 Re=.1 Rb=1.9725 Rc=.10925 Cje=89.447E-12 Mje=.3951 Cjc=12.345E-12 Mjc=.34703 Tf=338.25E-12 Xtf=302.20 Vtf=174.98 Itf=19.332 Tr=7.6417E-9 Xtb=1.5000 Vceo=30 Icrating=1 mfg=Rohm)