.model 2SD2114K NPN(Is=1.5000E-12 Bf=1.0520E3 Vaf=36.700 Ikf=3.2468 Ise=1.5000E-12 Ne=2.3002 Br=52.730 Var=100 Ikr=.37406 Isc=1.7779E-12 Nc=2.1499 Nk=.96651 Re=.1 Rb=2.7608 Rc=.17064 Cje=51.912E-12 Mje=.39966 Cjc=22.112E-12 Mjc=.38184 Tf=384.39E-12 Xtf=23.667 Vtf=33.125 Itf=5.0910 Tr=6.2144E-9 Xtb=1.5000 Vceo=20 Icrating=0.5 mfg=Rohm)