.model BC847C NPN(IS=20f VAF=65 BF=360 IKF=1.3 XTB=1.5 BR=5 CJC=20p CJE=8p TR=100n TF=600p RB=10 RC=3 RE=1 Vceo=32 Icrating=200m mfg=Rohm)