.model BC817-40T116 NPN(Is=250.00E-15 Bf=530.5 Vaf=100 Ikf=2 Ise=250.00E-15 Ne=1.4602 Br=34.771 Var=100 Ikr=1.9204 Isc=32.139E-12 Nc=1.4582 Nk=.95449 Re=.11 Rb=2.2167 Rc=.20594 Cje=140.16E-12 Mje=.34085 Cjc=22.788E-12 Mjc=.41739 Tf=993.07E-12 Xtf=116.12 Vtf=18.131 Itf=28.198 Tr=108.22E-9 Xtb=1.5000 Vceo=45 Icrating=0.5 mfg=Rohm)