.model BCX17 PNP(Is=300.00E-15 Bf=238.66 Vaf=100 Ikf=7.9962 Ise=300.00E-15 Ne=1.8179 Br=24.969 Var=100 Ikr=8.6844 Isc=20.673E-12 Nc=1.4876 Nk=1.2295 Re=.1 Rb=1.5116 Rc=.15941 Cje=127.81E-12 Mje=.41399 Cjc=41.583E-12 Mjc=.46676 Tf=475.21E-12 Xtf=26.772 Vtf=68.517 Itf=13.643 Tr=36.831E-9 Xtb=1.5000 Vceo=45 Icrating=0.5 mfg=Rohm)