.model BSS64A NPN(Is=31.280E-15 Bf=240.65 Vaf=99.150 Ikf=.99974 Ise=31.280E-15 Ne=2 Br=4.4938 Var=26.260 Ikr=.21786 Isc=4.2974E-12 Nc=1.3756 Nk=1.3960 Re=.5 Rb=13.508 Rc=.44891 Cje=21.454E-12 Vje=.76303 Mje=.36258 Cjc=6.1947E-12 Vjc=.43722 Mjc=.27797 Tf=440.29E-12 Xtf=278.46 Vtf=66.301 Itf=3.3294 Tr=300.00E-9 Xtb=1.5000 Tre1=0.005 Vceo=100 Icrating=0.1 mfg=Rohm)