.model BSS63A PNP(Is=33.110E-15 Bf=221.34 Vaf=80.862 Ikf=.38704 Ise=33.110E-15 Ne=2 Br=1.6375 Var=14.680 Ikr=10.010E-3 Isc=34.730E-12 Nc=1.6601 Nk=1.0087 Re=.2 Rb=10.475 Rc=.91993 Cje=22.449E-12 Vje=.58233 Mje=.37438 Cjc=11.181E-12 Vjc=.55043 Mjc=.38747 Tf=586.21E-12 Xtf=138.37 Vtf=68.910 Itf=3.0050 Tr=280.00E-9 Xtb=1.5000 Tre1=0.01 Vceo=100 Icrating=0.1 mfg=Rohm)