.model FZT849 NPN(IS=5.8591E-13 NF=0.9919 BF=230 IKF=18 VAF=90ISE=2.0067E-13 NE=1.4 NR=0.9908 BR=180 IKR=6.8VAR=20 ISC=5.3E-13 NC=1.46 RB=0.023 RE=0.0223RC=0.015 CJC=200E-12 MJC=0.3006 VJC=0.3532CJE=1.21E-9 TF=1.07E-9 TR=9.3E-9 Vceo=30 Icrating=7 mfg=Zetex)