.model LS310 NPN(Is=5.78f Xti=3.63 Eg=1.17 Vaf=145 Bf=466 Ne=1.44 Ise=0.87f Nr=1 Ikf=64m Xtb=1.36 Br=1.37 Ikr=10m Var=8.35 Isc=0.2f Nc=2 Nf=1 Rb=100 Re=0.36 Rc=10 Cjc=2.2p Cje=3.16p Mjc=129m Mje=236m Vjc=400m Vje=665m Tf=0.31n Tr=10n Vtf=14 Xtf=9 Rbm=10 Irb=10u Ptf=20 Fc=0.98 Itf=48m Mfg=Linear_Systems)