.model LS350 PNP(Is=3.82f Xti=3 Eg=1.17 Vaf=37.3 Bf=676 Ne=1.45 Ise=1.45f Nr=1 Ikf=6m Xtb=1.5 Br=638m Ikr=489u Var=20 Isc=0.001f Nc=1.9 Nf=1 Rb=200 Re=0.9 Rc=231 Cjc=2.53p Cje=1.99p Mjc=179.5m Mje=217m Vjc=400m Vje=604m Tf=0.72n Tr=10n Vtf=5 Xtf=2.04 Rbm=10 Irb=10u Ptf=20 Fc=0.5 Itf=18m Mfg=Linear_Systems)