.model LS3550B PNP(Is=9.04f Xti=3.65 Eg=1.17 Vaf=28.2 Bf=202 Ne=2 Ise=0.003f Nr=1 Ikf=45m Xtb=2.30 Br=6.87 Ikr=500u Var=20 Isc=0.41p Nc=1.8 Nf=1 Rb=100 Re=0.06 Rc=30 Cjc=6.02p Cje=5.48p Mjc=280m Mje=285.48m Vjc=538m Vje=622m Tf=0.26n Tr=10n Vtf=5 Xtf=0.1 Rbm=10 Irb=10u Ptf=20 Fc=0.97 Itf=40m Mfg=Linear_Systems)