.model QST2 PNP(Is=3.0000E-12 Bf=411.29 Vaf=100 Ikf=14.132 Ise=3.0000E-12 Ne=2.1102 Br=117.46 Var=100 Ikr=3.5660 Isc=10.247E-12 Nc=1.9499 Nk=.63694 Re=20.000E-3 Rb=.41819 Rc=16.749E-3 Cje=927.59E-12 Mje=.55418 Cjc=290.33E-12 Mjc=.43988 Tf=355.30E-12 Xtf=7.8139 Vtf=114.44 Itf=3.0974 Tr=4.0365E-9 Xtb=1.5000 Vceo=12 Icrating=6 mfg=Rohm)