.model QST3 PNP(Is=5.0000E-12 Bf=320.41 Vaf=100 Ikf=17.136 Ise=5.0000E-12 Ne=1.8571 Br=40.034 Var=100 Ikr=3.3707 Isc=5.1157E-12 Nc=1.3207 Nk=.90775 Re=20.000E-3 Rb=.34625 Rc=26.521E-3 Cje=899.18E-12 Mje=.47746 Cjc=345.49E-12 Mjc=.64518 Tf=552.63E-12 Xtf=5.9267 Vtf=14.149 Itf=3.9228 Tr=11.096E-9 Xtb=1.5000 Vceo=30 Icrating=5 mfg=Rohm)