.model QSX1 NPN(Is=3.0000E-12 Bf=467.63 Vaf=100 Ikf=60.966 Ise=3.0000E-12 Ne=2.0258 Br=184.11 Var=100 Ikr=12.656 Isc=445.24E-12 Nc=2.6823 Nk=.88982 Re=20.000E-3 Rb=.73198 Rc=12.033E-3 Cje=918.54E-12 Mje=.40813 Cjc=262.82E-12 Mjc=.44672 Tf=334.39E-12 Xtf=6.7101 Vtf=18.308 Itf=1.8899 Tr=2.7438E-9 Xtb=1.5000 Vceo=12 Icrating=6 mfg=Rohm)