.model QSX2 NPN(Is=2.6000E-12 Bf=347.66 Vaf=100 Ikf=17.729 Ise=2.6000E-12 Ne=1.6390 Br=76.889 Var=100 Ikr=1.5525 Isc=17.821E-12 Nc=1.3801 Nk=.92159 Re=15.000E-3 Rb=.82361 Rc=5.9847E-3 Cje=992.31E-12 Mje=.44606 Cjc=111.61E-12 Mjc=.46921 Tf=451.76E-12 Xtf=9.5017 Vtf=16.273 Itf=4.9668 Tr=8.6616E-9 Xtb=1.5000 Vceo=30 Icrating=5 mfg=Rohm)