.model SST2907A PNP(Is=80.000E-15 Bf=148.59 Vaf=19 Ikf=1.4062 Ise=12.409E-12 Ne=1.8629 Br=8.2898 Var=5.1000 Ikr=28.654E-3 Isc=44.995E-12 Nc=1.5887 Nk=.95413 Re=50.000E-3 Rb=4.1286 Rc=.27878 Cje=31.612E-12 Vje=.51401 Mje=.29441 Cjc=22.050E-12 Vjc=.55911 Mjc=.44294 Tf=426.74E-12 Xtf=1.1468 Vtf=479.32 Itf=.31201 Tr=58.204E-9 Xtb=1.5000 Vceo=60 Icrating=0.6 mfg=Rohm)