.model SST3904 NPN(Is=7.8000E-15 Bf=418.50 Vaf=210 Ikf=.11777 Ise=107.33E-15 Ne=1.4561 Br=1.4445 Var=16 Ikr=14.562 Isc=71.780E-12 Nc=1.5919 Nk=.73861 Rb=7.1334 Rc=.86215 Cje=6.3252E-12 Vje=.62919 Mje=.35786 Cjc=3.1745E-12 Vjc=.77077 Mjc=.19463 Tf=281.52E-12 Xtf=1.6571E3 Vtf=945.94 Itf=10.142 Tr=121.92E-9 Xtb=1.5000 Vceo=40 Icrating=0.2 mfg=Rohm)