.model SSTA06 NPN(Is=100.00E-15 Bf=200.65 Vaf=210.70 Ikf=1.5862 Ise=100.00E-15 Ne=1.5769 Br=385.26 Var=71.270 Ikr=.18206 Isc=2.2073E-12 Nc=1.2569 Nk=.98282 Re=50.000E-3 Rb=2.3695 Rc=.19338 Cje=72.128E-12 Vje=.46975 Mje=.32476 Cjc=15.723E-12 Vjc=.457 Mjc=.3653 Tf=481.26E-12 Xtf=58.730 Vtf=17.623 Itf=4.5070 Tr=51.994E-9 Xtb=1.2000 Tre1=0.01 Vceo=80 Icrating=0.5 mfg=Rohm)