.model ZTX1048A NPN(IS=13.73E-13 NF=1.0 BF=550 IKF=8.0 VAF=120ISE=2.6E-13 NE=1.38 NR=1.0 BR=300 IKR=6 VAR=15ISC=1.6E-12 NC=1.4 RB=0.1 RE=0.022 RC=0.010CJC=136E-12 CJE=559.1E-12 MJC=0.267 MJE=0.299VJC=0.420 VJE=0.533 TF=600E-12 TR=3E-9 Vceo=17.5 Icrating=5 mfg=Zetex)