.model 2N4393 NJF(Beta=9.109m Betatce=-0.5 Vto=-1.422 Vtotc=-2.5m Lambda=6m Is=205.2f Xti=3 Isr=1988f Nr=2 Alpha=20.98u N=1 Rd=1 Rs=1 Cgd=4.57p Cgs=4.06p Fc=0.5 Vk=123.7 M=407m Pb=1 Kf=12300f Af=1 Mfg=Linear_Systems)