.model 2N5461 PJF(Is=1.5p Alpha=1e-4 Vk=300 Vto=-4.3 Vtotc=-3m Beta=1.5m Lambda=10m Betatce=-.5 Rd=10 Rs=10 Cgs=5p Cgd=5p Kf=3e-17 mfg=Siliconix)