.model 2N5564 NJF(Beta=9.109m Betatce=-0.5 Vto=-1.447 Vtotc=-2.5m Lambda=7.5m Is=94.42f Xti=3 Isr=921.9f Nr=2 Alpha=88.38u N=1 Rd=1 Rs=1 Cgd=8.67p Cgs=9.76p Fc=0.5 Vk=171.6 M=474.2m Pb=1 Kf=67860f Af=1 Mfg=Linear_Systems)