.model J176 PJF(Beta=2.3m Betatce=-0.5 Vto=-1.82 Vtotc=-2.5m Lambda=21m Is=461.5f Xti=3 Isr=4402f Nr=2 Alpha=32.54u N=1 Rd=1 Rs=1 Cgd=6.5p Cgs=9p Fc=0.5 Vk=393.2 M=279m Pb=1 Kf=148600f Af=1 Mfg=Linear_Systems)