.model LS3958 NJF(Beta=0.768m Betatce=-0.5 Vto=-2.033 Vtotc=-2.5m Lambda=4.25m Is=24.55f Xti=3 Isr=240.1f Nr=2 Alpha=764.7u N=1 Rd=1 Rs=1 Cgd=1.71p Cgs=0.860p Fc=0.5 Vk=267.7 M=500m Pb=1 Kf=26360f Af=1 Mfg=Linear_Systems)