.model LS5906 NJF(Beta=0.15m Betatce=-0.5 Vto=-1.42 Vtotc=-2.5m Lambda=4.17m Is=1.24f Xti=0 Rd=17 Rs=21 Cgd=1p Cgs=1p Fc=0.5 M=500m Pb=0.8 Kf=0 Af=1 Mfg=Linear_Systems)