.model LS832 NJF(Beta=0.10m Betatce=-0.5 Vto=-1.99 Vtotc=-2.5m Lambda=4.14m Is=1.14f Xti=0 Rd=16 Rs=20 Cgd=1p Cgs=1p Fc=0.5 M=500m Pb=0.8 Kf=0 Af=1 Mfg=Linear_Systems)