.model LS830 NJF(Beta=0.23m Betatce=-0.5 Vto=-0.64 Vtotc=-2.5m Lambda=3.84m Is=0.18f Xti=0 Rd=25 Rs=32 Cgd=1p Cgs=1p Fc=0.5 M=500m Pb=0.8 Kf=0 Af=1 Mfg=Linear_Systems)