.model LS842 NJF(Beta=0.81m Betatce=-0.5 Vto=-2.60 Vtotc=-2.5m Lambda=14.08m Is=2.50f Xti=0 Rd=10 Rs=12 Cgd=1p Cgs=1p Fc=0.5 M=500m Pb=0.8 Kf=0 Af=1 Mfg=Linear_Systems)