.model LSJ289A PJF(Beta=3.5m Betatce=-0.5 Vto=-1.40 Vtotc=-2.5m Lambda=1.1m Is=0.45f Xti=0 N=1 Rd=111 Rs=40 Cgd=10p Cgs=9p Fc=0.5 M=300m Pb=0.25 Kf=0.0011f Af=1 Gdsnoi=2.95 Nlev=3 Mfg=Linear_Systems)