.model LSJ289C PJF(Beta=2.5m Betatce=-0.5 Vto=-3.05 Vtotc=-2.5m Lambda=2.0m Is=0.45f Xti=0 N=1 Rd=70 Rs=30 Cgd=10p Cgs=9p Fc=0.5 M=300m Pb=0.25 Kf=0.0011f Af=1 Gdsnoi=2.95 Nlev=3 Mfg=Linear_Systems)