.model LSK589B NJF(Beta=2.1m Betatce=-0.5 Vto=-1.80 Vtotc=-2.5m Lambda=5.7m Is=3f Xti=0 N=1 Rd=11 Rs=40 Cgd=3.19p Cgs=2.92p Fc=0.5 M=320m Pb=0.8 Kf=0.0009f Af=1 Gdsnoi=2.15 Nlev=3 Mfg=Linear_Systems)