.model PN4119 NJF(Beta=1.49m Betatce=-0.5 Vto=-4.03 Vtotc=-2.5m Lambda=19.20m Is=3.39f Xti=0 Rd=7 Rs=9 Cgd=1p Cgs=1p Fc=0.5 M=500m Pb=0.8 Kf=101800f Af=1 Mfg=Linear_Systems)