.model PN5116 PJF(Beta=1.71m Betatce=-0.5 Vto=-2.373 Lambda=25m Is=461.5f Xti=3 Nr=2 N=1 Rd=1 Rs=1 Cgd=6.5p Cgs=9p Fc=0.5 Pb=1 Af=1 Mfg=Linear_Systems)