.model SST201 NJF(Beta=1.07m Betatce=-0.5 Vto=-0.93 Vtotc=-2.5m Lambda=6.75m Is=1.72f Xti=0 Rd=10 Rs=12 Cgd=1p Cgs=1p Fc=0.5 M=500m Pb=0.8 Kf=0 Af=1 Mfg=Linear_Systems)