.model SST5301 NJF(Beta=0.0727m Betatce=-0.5 Vto=-1.798 Vtotc=-2.5m Lambda=15m Is=5.261f Xti=3 Isr=51.03f Nr=2 Alpha=0.797u N=1 Rd=1 Rs=1 Cgd=3.94p Cgs=4.93p Fc=0.5 Vk=90.45 M=435m Pb=1 Kf=108700f Af=1 Mfg=Linear_Systems)