.model U403 NJF(Beta=1.47m Betatce=-0.5 Vto=-3.25 Vtotc=-2.5m Lambda=9.12m Is=1.77f Xti=0 Rd=11 Rs=12 Cgd=1p Cgs=1p Fc=0.5 M=500m Pb=0.8 Kf=0 Af=1 Mfg=Linear_Systems)