.model U404 NJF(Beta=2.38m Betatce=-0.5 Vto=-0.99 Vtotc=-2.5m Lambda=4.13m Is=11.92f Xti=0 Rd=13 Rs=14 Cgd=1p Cgs=1p Fc=0.5 M=500m Pb=0.8 Kf=0 Af=1 Mfg=Linear_Systems)