.model U405 NJF(Beta=1.61m Betatce=-0.5 Vto=-2.34 Vtotc=-2.5m Lambda=7.15m Is=1.65f Xti=0 Rd=11 Rs=13 Cgd=1p Cgs=1p Fc=0.5 M=500m Pb=0.8 Kf=0 Af=1 Mfg=Linear_Systems)