.model AO6408 VDMOS(Rg=3 Rd=4.8m Rs=3.6m Vto=1 Kp=90 Cgdmax=.7n Cgdmin=.25n Cgs=1n Cjo=.36n Is=36p Rb=6m ksubthres=.1 mfg=Alpha_&_Omega Vds=20 Ron=12m Qg=18n)