.model AO6407 VDMOS(pchan Rg=3 Rd=14m Rs=10m Vto=-.8 Kp=32 Cgdmax=.5n Cgdmin=.07n Cgs=.9n Cjo=.26n Is=26p Rb=17m ksubthres=.1 mfg=Alpha_&_Omega Vds=-20 Ron=34m Qg=13n)