.model AON6242 VDMOS(Rg=2 Vto=2.7 Rb=1m lambda=.1 Kp=280 Rd=2.6m mtriode=2 Cgdmax=1n Cgdmin=50p Cgs=5n Cjo=4n Is=2p ksubthres=.1 mfg=Alpha_&_Omega Vds=60 Ron=4m Qg=23n)