.model AON6276 VDMOS(Kp=142 Rs=10u Rd=0.0011 Rg=0.7 Vto=3.26 mtriode=1.5 Ksubthres=0.08 Lambda=0.09 Cgdmax=959p Cgdmin=36p Cgs=4900p tt=46n A=2.28 Is=1.88E-12 N=0.971 Rb=0.002469 M=0.66 Vj=3.43 Cjo=3900.0pF mfg=AOS Vds=80 Ron=2.2m Qg=68n)