.model AON6266E VDMOS(Rs=3.5m Rd=3.5m Rg=1.3 Vto=1.66 Kp=20.8 lambda=65.2m mtriode=2.42 ksubthres=.1 Is=996f N=1.00957 Rb=5.54m Eg=1.11 XTI=1.73049 trb1=1.69m vtotc=-2.8m trd1=9m trs1=9m Cgs=900p Cgdmin=50p Cgdmax=350p Cjo=480p m=.5 tt=2.7n mfg=Alpha_&_Omega Vds=60 Ron=14m Qg=6.5n)