.model AON7422G VDMOS(Rs=1.3m Rd=1.3m Rg=2.5 Vto=2.44 Kp=56.4 lambda=411m mtriode=3.32 ksubthres=.1 Is=3.63p N=1.01743 Rb=1.27m Eg=1.11 XTI=2.39498 trb1=443u vtotc=-2m trd1=7m trs1=7m Cgs=3n Cgdmin=100p Cgdmax=750p Cjo=1n m=.5 tt=.75n mfg=Alpha_&_Omega Vds=30 Ron=5.2m Qg=20n)