.model AON7262E VDMOS(Kp=70 Rs=0.1m Rd=0.0029 Rg=1.3 Vto=1.98 mtriode=1.4 Ksubthres=.01 Lambda=0.024 Cgdmax=710p Cgdmin=1p Cgs=1600p tt=27n A=0.18 Is=6.15E-12 N=1.045 Rb=0.002307 BV=66 IBV=250u M=0.85 Vj=16.58 Cjo=1126.0pF mfg=AOS Vds=60 Ron=4.8m Qg=15n)