.model AONP36320_Q2 VDMOS(Rs=1.02m Rd=1.02m Rg=2.3 Vto=2.16 Kp=16.8 lambda=2.03 mtriode=13.5 ksubthres=.1 Is=3.33p N=1.02363 Rb=1.27m Eg=1.11 XTI=2.64872 trb1=1.27m vtotc=-2.25m trd1=3.5m trs1=3.5m Cgs=1.5n Cgdmin=150p Cgdmax=250p Cjo=1.5n m=.6 tt=1.2n mfg=Alpha_&_Omega Vds=30 Ron=4m Qg=10n)