.model AONR66406 VDMOS(Kp=69.2307 Rs=0.0037 Rd=0.0001 Rg=1.8 Vto=2.52 mtriode=1.3 Ksubthres=0.01 Lambda=0.06 Cgdmax=262p Cgdmin=0p Cgs=1467p tt=16n A=0.39 Is=3.09E-13 N=0.933 Rb=0.004937 M=0.509 Vj=0.93 Cjo=1130.0pF mfg=AOS Vds=40 Ron=5m Qg=8.5n)