.model AONR32320C VDMOS(Rs=5.75m Rd=5.75m Rg=2.1 Vto=1.07 Kp=6.84 lambda=55.4m mtriode=3.9 ksubthres=.1 Is=1.24p N=1.01547 Rb=5.88m Eg=1.11 XTI=1.78957 trb1=3.95m vtotc=-3.5m trd1=4.5m trs1=4.5m Cgs=.6n Cgdmin=50p Cgdmax=350p Cjo=25p m=.5 tt=.53n mfg=Alpha_&_Omega Vds=30 Ron=23m Qg=7n)