.model AONR36328 VDMOS(Rs=3.16m Rd=3.16m Rg=1.5 Vto=2.46 Kp=55.2 lambda=537m mtriode=3.28 ksubthres=.1 Is=1.09p N=1.02196 Rb=3.92m Eg=1.11 XTI=3.15318 trb1=2.6m vtotc=-1.5m trd1=4m trs1=4m Cgs=.65n Cgdmin=25p Cgdmax=350p Cjo=500p m=.5 tt=.635n mfg=Alpha_&_Omega Vds=30 Ron=9.2m Qg=5n)