.model AONR21305C VDMOS(pchan Rs=2.27m Rd=2.27m Rg=2.7 Vto=-2.19 Kp=64.3 lambda=91.7m mtriode=2.23 ksubthres=.1 Is=2.93p N=1.03691 Rb=1.91m Eg=1.11 XTI=2.86353 trb1=4.4m vtotc=2m trd1=3.5m trs1=3.5m Cgs=4n Cgdmin=500p Cgdmax=2n Cjo=500p m=.6 tt=1.7n mfg=Alpha_&_Omega Vds=-30 Ron=7.7m Qg=32n)