.model AONS32303 VDMOS(Rs=437u Rd=437u Rg=800m Vto=1.97 Kp=56.5 lambda=30.1m mtriode=4.3 ksubthres=.1 Is=82.8p N=0.934175 Rb=277u Eg=1.11 XTI=0.304817 trb1=4.51m vtotc=-2.5m trd1=6m trs1=6m Cgs=6n Cgdmin=750p Cgdmax=3.8n Cjo=.3n m=.8 tt=2n mfg=Alpha_&_Omega Vds=30 Ron=2.55m Qg=52n)