.model AONS66614 VDMOS(Rs=1.1m Rd=1.1m Rg=1.1 Vto=2.55 Kp=182 lambda=0.134 mtriode=3.14 ksubthres=.1 Is=3.37p N=1.02286 Rb=1.76m Eg=1.11 XTI=0.304817 trb1=-2.78m vtotc=-2.3m trd1=6m trs1=6m Cgs=3n Cgdmin=70p Cgdmax=1.5n Cjo=2.5n m=.45 tt=3.65n mfg=Alpha_&_Omega Vds=60 Ron=3.1m Qg=25n)