.model AONS32302 VDMOS(Rs=478u Rd=478u Rg=800m Vto=2.64 Kp=489 lambda=449m mtriode=2.13 ksubthres=.1 Is=11.9p N=1.03813 Rb=150u Eg=1.11 XTI=0.570317 trb1=-10m vtotc=-1.5m trd1=6m trs1=6m Cgs=6n Cgdmin=750p Cgdmax=3.5n Cjo=1.3n m=.8 tt=2n mfg=Alpha_&_Omega Vds=30 Ron=1.5m Qg=54n)