.model AONS32306 VDMOS(Rs=1.48m Rd=1.48m Rg=2 Vto=1.95 Kp=98.8 lambda=517m mtriode=5.37 ksubthres=.1 Is=16.3p N=1.01906 Rb=2.46m Eg=1.11 XTI=1.28271 trb1=-974u vtotc=-1m trd1=4.2m trs1=4.2m Cgs=4n Cgdmin=250p Cgdmax=1.3n Cjo=.8n m=.5 tt=.95n mfg=Alpha_&_Omega Vds=30 Ron=3.7m Qg=29n)