.model AONS21303C VDMOS(pchan Rs=941u Rd=941u Rg=2.6 Vto=-2.55 Kp=344 lambda=95m mtriode=1.19 ksubthres=.1 Is=20.1p N=1.06087 Rb=1.31m Eg=1.11 XTI=0.304817 trb1=-5.71m vtotc=2m trd1=3.5m trs1=3.5m Cgs=10n Cgdmin=500p Cgdmax=8n Cjo=100p m=.5 tt=3.15n mfg=Alpha_&_Omega Vds=-30 Ron=3.2m Qg=100n)