.model AONX36324_Q2 VDMOS(Rs=585u Rd=585u Rg=1.4 Vto=2.26 Kp=107 lambda=284m mtriode=2.91 ksubthres=.1 Is=6.98p N=1.03203 Rb=1.28m Eg=1.11 XTI=0.398032 trb1=-7.65m vtotc=-3.5m trd1=5m trs1=5m Cgs=2n Cgdmin=50p Cgdmax=1000p Cjo=1.75n m=.4 tt=2n mfg=Alpha_&_Omega Vds=30 Ron=2.6m Qg=15n)