.model AONX36322_Q1 VDMOS(Rs=1.48m Rd=1.48m Rg=1.2 Vto=2.03 Kp=39.1 lambda=0.122 mtriode=4.84 ksubthres=.1 Is=3.88p N=1.04787 Rb=2.38m Eg=1.11 XTI=1.16945 trb1=-1.87m vtotc=-1.5m trd1=4m trs1=4m Cgs=1n Cgdmin=25p Cgdmax=450p Cjo=1n m=.38 tt=1n mfg=Alpha_&_Omega Vds=30 Ron=5.2m Qg=7.5n)