.model BSB015N04NX3 VDMOS(Rg=1 Vto=4.95 Rd=612u Rs=183u Rb=343u Kp=580.5 Lambda=0.03 Cgdmin=111p Cgdmax=1.55n A=0.6 Cgs=8.4n Cjo=7.46n M=0.3 Is=84p VJ=0.9 N=1.1 TT=3n ksubthres=.1 mfg=Infineon Vds=40 Ron=1.5m Qg=114n)