.model BSB014N04LX3 VDMOS(Rg=1 Vto=2.89 Rd=692u Rs=183u Rb=343u Kp=1084 Lambda=0.09 Cgdmin=155p Cgdmax=2.32n A=0.6 Cgs=11.38n Cjo=7.46n M=0.3 Is=84p VJ=0.9 N=1.1 TT=3n ksubthres=.1 mfg=Infineon Vds=40 Ron=1.2m Qg=71n)