.model BSB013NE2LXI VDMOS(Rg=0.6 Vto=2.33 Rd=652u Rs=85u Rb=1.37m Kp=893.8 Lambda=0.09 Cgdmin=88p Cgdmax=1.58n A=0.6 Cgs=4.23n Cjo=5.17n M=0.75 Is=53618p VJ=2.5 N=1.12 TT=1p ksubthres=.1 mfg=Infineon Vds=25 Ron=1.3m Qg=30n)