.model BSB012N03MX3 VDMOS(Rg=0.5 Vto=2.52 Rd=572u Rs=183u Rb=373u Kp=1182.4 Lambda=0.07 Cgdmin=221p Cgdmax=3.09n A=0.6 Cgs=12.71n Cjo=8.84n M=0.3 Is=77.4p VJ=0.9 N=1.11 TT=3n ksubthres=.1 mfg=Infineon Vds=30 Ron=1.2m Qg=82n)