.model BSB012NE2LX VDMOS(Rg=0.55 Vto=2.33 Rd=632u Rs=85u Rb=415u Kp=1031.4 Lambda=0.09 Cgdmin=88p Cgdmax=1.58n A=0.6 Cgs=4.73n Cjo=5.17n M=0.75 Is=53.6p VJ=2.5 N=1.12 TT=3n ksubthres=.1 mfg=Infineon Vds=25 Ron=1.2m Qg=33n)