.model BSB017N03MX3 VDMOS(Rg=0.5 Vto=2.52 Rd=1m Rs=203u Rb=543u Kp=653.4 Lambda=0.07 Cgdmin=122p Cgdmax=1.71n A=0.6 Cgs=7.02n Cjo=5.14n M=0.3 Is=42.7p VJ=0.9 N=1.11 TT=3n ksubthres=.1 mfg=Infineon Vds=30 Ron=1.7m Qg=45n)