.model BSB017N03LX3 VDMOS(Rg=0.5 Vto=2.77 Rd=1.06m Rs=203u Rb=563u Kp=599.1 Lambda=0.09 Cgdmin=85p Cgdmax=1.28n A=0.6 Cgs=5.31n Cjo=5.14n M=0.3 Is=46.4p VJ=0.9 N=1.1 TT=3n ksubthres=.1 mfg=Infineon Vds=30 Ron=1.7m Qg=34n)