.model BSC090N03LS VDMOS(Rg=1 Vto=2.77 Rd=5.13m Rs=407u Rb=2.22m Kp=118.7 Lambda=0.09 Cgdmin=17p Cgdmax=0.25n A=0.6 Cgs=1.05n Cjo=1.26n M=0.3 Is=9.2p VJ=0.9 N=1.1 TT=3n ksubthres=.1 mfg=Infineon Vds=30 Ron=9m Qg=7n)