.model BSC011N03LS VDMOS(Rg=0.6 Vto=2.3 Rd=440u Rs=236u Rb=586u Kp=958.7 Lambda=0.07 Cgdmin=119p Cgdmax=2.09n A=0.6 Cgs=4.48n Cjo=4.91n M=0.75 Is=50.8p VJ=2.5 N=1.12 TT=3n ksubthres=.1 mfg=Infineon Vds=30 Ron=1.1m Qg=34n)