.model BSC054N04NS VDMOS(Rg=1.5 Vto=4.95 Rd=2.31m Rs=567u Rb=1.24m Kp=143.1 Lambda=0.03 Cgdmin=27p Cgdmax=0.38n A=0.6 Cgs=2.07n Cjo=2.05n M=0.3 Is=20.7p VJ=0.9 N=1.1 TT=3n ksubthres=.1 mfg=Infineon Vds=40 Ron=5.4m Qg=28n)