.model BSC025N03MS VDMOS(Rg=1.6 Vto=2.52 Rd=1.24m Rs=271u Rb=701u Kp=520 Lambda=0.07 Cgdmin=97p Cgdmax=1.36n A=0.6 Cgs=5.59n Cjo=4.19n M=0.3 Is=34p VJ=0.9 N=1.11 TT=3n ksubthres=.1 mfg=Infineon Vds=30 Ron=3.0m Qg=36n)