.model BSC059N04LS VDMOS(Rg=1.4 Vto=2.89 Rd=3.2m Rs=473u Rb=1.28m Kp=221.7 Lambda=0.09 Cgdmin=32p Cgdmax=0.47n A=0.6 Cgs=2.33n Cjo=1.73n M=0.3 Is=17.2p VJ=0.9 N=1.1 TT=3n ksubthres=.1 mfg=Infineon Vds=40 Ron=5.9m Qg=14n)