.model BSC018NE2LS VDMOS(Rg=0.8 Vto=2.33 Rd=640u Rs=365u Rb=945u Kp=590.6 Lambda=0.09 Cgdmin=51p Cgdmax=0.9n A=0.6 Cgs=2.71n Cjo=3.1n M=0.75 Is=30.7p VJ=2.5 N=1.12 TT=3n ksubthres=.1 mfg=Infineon Vds=25 Ron=1.8m Qg=19n)