.model BSC0902NSI VDMOS(Rg=0.9 Vto=2.33 Rd=1.28m Rs=331u Rb=4.1m Kp=304.7 Lambda=0.09 Cgdmin=30p Cgdmax=0.75n A=0.6 Cgs=1.44n Cjo=1.94n M=0.75 Is=18275p VJ=2.5 N=1.12 TT=1p ksubthres=.1 mfg=Infineon Vds=30 Ron=2.8m Qg=11n)