.model BSC067N06LS3 VDMOS(Rg=1 Vto=2.5 Rd=3.72m Rs=634u Rb=1.48m Kp=132.8 Lambda=0.01 Cgdmin=11p Cgdmax=1.24n A=2.5 Cgs=3.8n Cjo=2.24n M=0.3 Is=6p VJ=0.9 N=1.06 TT=30n ksubthres=.1 mfg=Infineon Vds=60 Ron=6.7m Qg=23n)