.model BSC050N04LS VDMOS(Rg=1.5 Vto=2.89 Rd=2.66m Rs=524u Rb=1.19m Kp=267.2 Lambda=0.09 Cgdmin=38p Cgdmax=0.57n A=0.6 Cgs=2.81n Cjo=2.05n M=0.3 Is=20.7p VJ=0.9 N=1.1 TT=3n ksubthres=.1 mfg=Infineon Vds=40 Ron=5.0m Qg=17n)