.model BSC050N03LS VDMOS(Rg=1.4 Vto=2.77 Rd=2.77m Rs=473u Rb=1.44m Kp=221.7 Lambda=0.09 Cgdmin=32p Cgdmax=0.47n A=0.6 Cgs=1.97n Cjo=2.14n M=0.3 Is=17.2p VJ=0.9 N=1.1 TT=3n ksubthres=.1 mfg=Infineon Vds=30 Ron=5m Qg=13n)