.model BSC0906NS VDMOS(Rg=4 Vto=2.3 Rd=2.34m Rs=276u Rb=2.21m Kp=174.8 Lambda=0.07 Cgdmin=22p Cgdmax=0.38n A=0.6 Cgs=0.82n Cjo=1.08n M=0.75 Is=9.3p VJ=2.5 N=1.12 TT=3n ksubthres=.1 mfg=Infineon Vds=30 Ron=4.5m Qg=6n)