.model BSC047N08NS3 VDMOS(Rg=2.2 Vto=3.9 Rd=2.4m Rs=404u Rb=1.38m Kp=160.4 Lambda=0.03 Cgdmin=23p Cgdmax=1.14n A=0.2 Cgs=3.53n Cjo=3.17n M=0.27 Is=68.9p VJ=0.9 N=1.16 TT=40n ksubthres=.1 mfg=Infineon Vds=80 Ron=4.7m Qg=51n)