.model BSC016N03LS VDMOS(Rg=1.5 Vto=2.77 Rd=770u Rs=381u Rb=641u Kp=840 Lambda=0.09 Cgdmin=120p Cgdmax=1.8n A=0.6 Cgs=7.45n Cjo=6.99n M=0.3 Is=65.1p VJ=0.9 N=1.1 TT=3n ksubthres=.1 mfg=Infineon Vds=30 Ron=1.6m Qg=48n)