.model BSC016N03MS VDMOS(Rg=1.3 Vto=2.52 Rd=730u Rs=381u Rb=631u Kp=916.2 Lambda=0.07 Cgdmin=171p Cgdmax=2.4n A=0.6 Cgs=9.85n Cjo=6.99n M=0.3 Is=59.9p VJ=0.9 N=1.11 TT=3n ksubthres=.1 mfg=Infineon Vds=30 Ron=2.0m Qg=63n)