.model BSC027N04LS VDMOS(Rg=1.6 Vto=2.89 Rd=1.52m Rs=271u Rb=641u Kp=476.8 Lambda=0.09 Cgdmin=68p Cgdmax=1.02n A=0.6 Cgs=5.01n Cjo=3.47n M=0.3 Is=36.9p VJ=0.9 N=1.1 TT=3n ksubthres=.1 mfg=Infineon Vds=40 Ron=2.7m Qg=31n)