.model BSC076N06NS3 VDMOS(Rg=1 Vto=4.35 Rd=3.72m Rs=634u Rb=2.04m Kp=99.1 Lambda=0.01 Cgdmin=7p Cgdmax=0.78n A=2.5 Cgs=3.01n Cjo=2.24n M=0.3 Is=6p VJ=0.9 N=1.06 TT=30n ksubthres=.1 mfg=Infineon Vds=60 Ron=7.6m Qg=37n)