.model BSC042NE7NS3 VDMOS(Rg=2.2 Vto=4.2 Rd=2.11m Rs=404u Rb=1.38m Kp=160.4 Lambda=0.03 Cgdmin=23p Cgdmax=1.14n A=0.2 Cgs=3.53n Cjo=2.58n M=0.27 Is=68.9p VJ=0.9 N=1.16 TT=40n ksubthres=.1 mfg=Infineon Vds=75 Ron=5.2m Qg=51n)