.model BSC034N03LS VDMOS(Rg=1.5 Vto=2.77 Rd=2.03m Rs=596u Rb=1.31m Kp=304.1 Lambda=0.09 Cgdmin=43p Cgdmax=0.65n A=0.6 Cgs=2.7n Cjo=2.81n M=0.3 Is=23.6p VJ=0.9 N=1.1 TT=3n ksubthres=.1 mfg=Infineon Vds=30 Ron=3.4m Qg=17n)