.model BSC042N03LS VDMOS(Rg=1.5 Vto=2.77 Rd=2.31m Rs=524u Rb=1.32m Kp=267.2 Lambda=0.09 Cgdmin=38p Cgdmax=0.57n A=0.6 Cgs=2.37n Cjo=2.51n M=0.3 Is=20.7p VJ=0.9 N=1.1 TT=3n ksubthres=.1 mfg=Infineon Vds=30 Ron=4.2m Qg=15n)