.model BSC057N03MS VDMOS(Rg=1.3 Vto=2.52 Rd=3.01m Rs=502u Rb=1.57m Kp=209.5 Lambda=0.07 Cgdmin=39p Cgdmax=0.55n A=0.6 Cgs=2.25n Cjo=1.89n M=0.3 Is=13.7p VJ=0.9 N=1.11 TT=3n ksubthres=.1 mfg=Infineon Vds=30 Ron=7.2m Qg=14n)