.model BSC010NE2LSI VDMOS(Rg=0.6 Vto=2.33 Rd=420u Rs=236u Rb=1.59m Kp=852.9 Lambda=0.09 Cgdmin=84p Cgdmax=1.5n A=0.6 Cgs=4.03n Cjo=4.95n M=0.75 Is=51161.5p VJ=2.5 N=1.12 TT=1p ksubthres=.1 mfg=Infineon Vds=25 Ron=1.05m Qg=29n)