.model BSC030N03MS VDMOS(Rg=1.5 Vto=2.52 Rd=1.65m Rs=254u Rb=834u Kp=388.3 Lambda=0.07 Cgdmin=73p Cgdmax=1.02n A=0.6 Cgs=4.17n Cjo=3.23n M=0.3 Is=25.4p VJ=0.9 N=1.11 TT=3n ksubthres=.1 mfg=Infineon Vds=30 Ron=3.8m Qg=27n)