.model BSC024NE2LS VDMOS(Rg=0.9 Vto=2.33 Rd=1.07m Rs=331u Rb=1.31m Kp=351.5 Lambda=0.09 Cgdmin=30p Cgdmax=0.54n A=0.6 Cgs=1.61n Cjo=1.94n M=0.75 Is=18.3p VJ=2.5 N=1.12 TT=3n ksubthres=.1 mfg=Infineon Vds=25 Ron=2.4m Qg=11n)