.model BSC020N03LS VDMOS(Rg=1.9 Vto=2.77 Rd=1.06m Rs=336u Rb=696u Kp=600.3 Lambda=0.09 Cgdmin=86p Cgdmax=1.28n A=0.6 Cgs=5.32n Cjo=5.15n M=0.3 Is=46.5p VJ=0.9 N=1.1 TT=3n ksubthres=.1 mfg=Infineon Vds=30 Ron=2m Qg=34n)