.model BSC010NE2LS VDMOS(Rg=0.6 Vto=2.33 Rd=400u Rs=236u Rb=586u Kp=976.6 Lambda=0.09 Cgdmin=84p Cgdmax=1.49n A=0.6 Cgs=4.48n Cjo=4.91n M=0.75 Is=50.8p VJ=2.5 N=1.12 TT=3n ksubthres=.1 mfg=Infineon Vds=25 Ron=1m Qg=31n)