.model BSC016N04LS VDMOS(Rg=1.5 Vto=2.89 Rd=880u Rs=231u Rb=441u Kp=840 Lambda=0.09 Cgdmin=120p Cgdmax=1.8n A=0.6 Cgs=8.82n Cjo=5.87n M=0.3 Is=65.1p VJ=0.9 N=1.1 TT=3n ksubthres=.1 mfg=Infineon Vds=40 Ron=1.6m Qg=55n)