.model BSC0904NSI VDMOS(Rg=0.9 Vto=2.33 Rd=1.84m Rs=301u Rb=5.76m Kp=210.1 Lambda=0.09 Cgdmin=21p Cgdmax=0.52n A=0.6 Cgs=0.99n Cjo=1.4n M=0.75 Is=12605.5p VJ=2.5 N=1.12 TT=1p ksubthres=.1 mfg=Infineon Vds=30 Ron=3.7m Qg=8n)