.model BSC093N04LS VDMOS(Rg=1 Vto=2.89 Rd=5.32m Rs=461u Rb=1.81m Kp=132.4 Lambda=0.09 Cgdmin=19p Cgdmax=0.28n A=0.6 Cgs=1.39n Cjo=1.1n M=0.3 Is=10.3p VJ=0.9 N=1.1 TT=3n ksubthres=.1 mfg=Infineon Vds=40 Ron=9.3m Qg=9n)