.model BSC080N03LS VDMOS(Rg=1 Vto=2.77 Rd=4.61m Rs=414u Rb=2.03m Kp=132.4 Lambda=0.09 Cgdmin=19p Cgdmax=0.28n A=0.6 Cgs=1.17n Cjo=1.38n M=0.3 Is=10.3p VJ=0.9 N=1.1 TT=3n ksubthres=.1 mfg=Infineon Vds=30 Ron=8m Qg=8n)