.model BSC030N04NS VDMOS(Rg=1.6 Vto=4.95 Rd=1.32m Rs=271u Rb=641u Kp=255.3 Lambda=0.03 Cgdmin=49p Cgdmax=0.68n A=0.6 Cgs=3.69n Cjo=3.47n M=0.3 Is=36.9p VJ=0.9 N=1.1 TT=3n ksubthres=.1 mfg=Infineon Vds=40 Ron=3m Qg=50n)