.model BSC035N04LS VDMOS(Rg=1.5 Vto=2.89 Rd=2.01m Rs=254u Rb=754u Kp=356 Lambda=0.09 Cgdmin=51p Cgdmax=0.76n A=0.6 Cgs=3.74n Cjo=2.65n M=0.3 Is=27.6p VJ=0.9 N=1.1 TT=3n ksubthres=.1 mfg=Infineon Vds=40 Ron=3.5m Qg=23n)