.model BSC052N03LS VDMOS(Rg=0.65 Vto=2.3 Rd=2.64m Rs=276u Rb=2.46m Kp=154.6 Lambda=0.07 Cgdmin=19p Cgdmax=0.34n A=0.6 Cgs=0.72n Cjo=0.97n M=0.75 Is=8.2p VJ=2.5 N=1.12 TT=3n ksubthres=.1 mfg=Infineon Vds=30 Ron=5.2m Qg=5n)