.model BSC030N03LS VDMOS(Rg=1.5 Vto=2.77 Rd=1.74m Rs=254u Rb=854u Kp=356 Lambda=0.09 Cgdmin=51p Cgdmax=0.76n A=0.6 Cgs=3.16n Cjo=3.23n M=0.3 Is=27.6p VJ=0.9 N=1.1 TT=3n ksubthres=.1 mfg=Infineon Vds=30 Ron=3m Qg=20n)