.model BSC082N10LS VDMOS(Rg=1.3 Vto=2.9 Rd=5.75m Rs=450u Rb=1.92m Kp=289.2 Lambda=0.03 Cgdmin=24p Cgdmax=1.4n A=0.3 Cgs=5.49n Cjo=3.18n M=0.35 Is=21.3p VJ=0.8 N=1.07 TT=90n ksubthres=.1 mfg=Infineon Vds=100 Ron=8.2m Qg=36n)