.model BSC079N10NS VDMOS(Rg=1.3 Vto=4.15 Rd=4.56m Rs=450u Rb=1.73m Kp=91.9 Lambda=0.03 Cgdmin=24p Cgdmax=1.4n A=0.3 Cgs=4.26n Cjo=3.18n M=0.35 Is=21.3p VJ=0.8 N=1.11 TT=90n ksubthres=.1 mfg=Infineon Vds=100 Ron=7.9m Qg=65n)