.model BSC025N03LS VDMOS(Rg=1.6 Vto=2.77 Rd=1.32m Rs=271u Rb=721u Kp=476.8 Lambda=0.09 Cgdmin=68p Cgdmax=1.02n A=0.6 Cgs=4.23n Cjo=4.19n M=0.3 Is=36.9p VJ=0.9 N=1.1 TT=3n ksubthres=.1 mfg=Infineon Vds=30 Ron=2.5m Qg=27n)