.model BSC080N03MS VDMOS(Rg=1 Vto=2.52 Rd=4.35m Rs=461u Rb=2.02m Kp=144.5 Lambda=0.07 Cgdmin=27p Cgdmax=0.38n A=0.6 Cgs=1.55n Cjo=1.38n M=0.3 Is=9.5p VJ=0.9 N=1.11 TT=3n ksubthres=.1 mfg=Infineon Vds=30 Ron=10.2m Qg=10n)