.model BSC019N04NS VDMOS(Rg=1.3 Vto=4.95 Rd=770u Rs=381u Rb=591u Kp=449.8 Lambda=0.03 Cgdmin=86p Cgdmax=1.2n A=0.6 Cgs=6.51n Cjo=5.87n M=0.3 Is=65.1p VJ=0.9 N=1.1 TT=3n ksubthres=.1 mfg=Infineon Vds=40 Ron=1.9m Qg=89n)