.model BSC057N03LS VDMOS(Rg=1.3 Vto=2.77 Rd=3.19m Rs=455u Rb=1.58m Kp=192.1 Lambda=0.09 Cgdmin=27p Cgdmax=0.41n A=0.6 Cgs=1.7n Cjo=1.89n M=0.3 Is=14.9p VJ=0.9 N=1.1 TT=3n ksubthres=.1 mfg=Infineon Vds=30 Ron=5.7m Qg=11n)