.model BSC196N10NS VDMOS(Rg=1.5 Vto=4.15 Rd=11.96m Rs=276u Rb=3.65m Kp=35 Lambda=0.03 Cgdmin=9p Cgdmax=0.53n A=0.3 Cgs=1.62n Cjo=1.21n M=0.35 Is=8.1p VJ=0.8 N=1.11 TT=90n ksubthres=.1 mfg=Infineon Vds=100 Ron=19.6m Qg=25n)