.model BSC120N03MS VDMOS(Rg=0.9 Vto=2.52 Rd=5.97m Rs=414u Rb=2.56m Kp=104.8 Lambda=0.07 Cgdmin=20p Cgdmax=0.27n A=0.6 Cgs=1.13n Cjo=1.06n M=0.3 Is=6.9p VJ=0.9 N=1.11 TT=3n ksubthres=.1 mfg=Infineon Vds=30 Ron=14m Qg=7n)