.model BSC123N10LS VDMOS(Rg=1.0 Vto=2.9 Rd=8.95m Rs=349u Rb=2.64m Kp=185.9 Lambda=0.03 Cgdmin=15p Cgdmax=0.9n A=0.3 Cgs=3.53n Cjo=2.05n M=0.35 Is=13.7p VJ=0.8 N=1.07 TT=90n ksubthres=.1 mfg=Infineon Vds=100 Ron=12.3m Qg=23n)