.model BSC152N10NSF VDMOS(Rg=1.0 Vto=4.25 Rd=6.95m Rs=349u Rb=1.46m Kp=36 Lambda=0.03 Cgdmin=15p Cgdmax=0.45n A=0.3 Cgs=1.37n Cjo=1.44n M=0.35 Is=13.7p VJ=0.8 N=1.11 TT=90n ksubthres=.1 mfg=Infineon Vds=100 Ron=15.2m Qg=21n)