.model BSC100N10NSF VDMOS(Rg=1.3 Vto=4.25 Rd=4.47m Rs=450u Rb=1.16m Kp=56.1 Lambda=0.03 Cgdmin=24p Cgdmax=0.7n A=0.3 Cgs=2.13n Cjo=2.24n M=0.35 Is=21.3p VJ=0.8 N=1.11 TT=90n ksubthres=.1 mfg=Infineon Vds=100 Ron=10m Qg=33n)