.model BSC120N03LS VDMOS(Rg=0.9 Vto=2.77 Rd=6.33m Rs=414u Rb=2.65m Kp=96 Lambda=0.09 Cgdmin=14p Cgdmax=0.21n A=0.6 Cgs=0.85n Cjo=1.06n M=0.3 Is=7.4p VJ=0.9 N=1.1 TT=3n ksubthres=.1 mfg=Infineon Vds=30 Ron=12m Qg=5n)