.model BSC118N10NS VDMOS(Rg=1 Vto=4.15 Rd=7.09m Rs=349u Rb=2.35m Kp=59.1 Lambda=0.03 Cgdmin=15p Cgdmax=0.9n A=0.3 Cgs=2.74n Cjo=2.05n M=0.35 Is=13.7p VJ=0.8 N=1.11 TT=90n ksubthres=.1 mfg=Infineon Vds=100 Ron=11.8m Qg=42n)