.model BSC190N15NS3 VDMOS(Rg=2.4 Vto=4.4 Rd=11.97m Rs=404u Rb=1.61m Kp=49.8 Lambda=0.02 Cgdmin=6p Cgdmax=0.27n A=0.5 Cgs=1.81n Cjo=2.72n M=0.4 Is=68.9p VJ=0.9 N=1.185 TT=100n ksubthres=.1 mfg=Infineon Vds=150 Ron=19m Qg=23n)