.model BSC110N06NS3 VDMOS(Rg=1.3 Vto=4.35 Rd=5.61m Rs=546u Rb=2.69m Kp=65.5 Lambda=0.01 Cgdmin=5p Cgdmax=0.51n A=2.5 Cgs=1.99n Cjo=1.55n M=0.3 Is=4p VJ=0.9 N=1.06 TT=30n ksubthres=.1 mfg=Infineon Vds=60 Ron=11m Qg=25n)