.model BSC105N10LSF VDMOS(Rg=1.3 Vto=2.8 Rd=5.54m Rs=450u Rb=1.92m Kp=129.3 Lambda=0.03 Cgdmin=24p Cgdmax=0.7n A=0.3 Cgs=2.75n Cjo=3.25n M=0.35 Is=21.3p VJ=0.8 N=1.07 TT=90n ksubthres=.1 mfg=Infineon Vds=100 Ron=10.5m Qg=18n)