.model BSC100N03LS VDMOS(Rg=0.9 Vto=2.77 Rd=5.49m Rs=402u Rb=2.34m Kp=110.9 Lambda=0.09 Cgdmin=16p Cgdmax=0.24n A=0.6 Cgs=0.98n Cjo=1.19n M=0.3 Is=8.6p VJ=0.9 N=1.1 TT=3n ksubthres=.1 mfg=Infineon Vds=30 Ron=10m Qg=6n)