.model BSC159N10LSF VDMOS(Rg=1.0 Vto=2.8 Rd=8.61m Rs=349u Rb=2.64m Kp=83.1 Lambda=0.03 Cgdmin=15p Cgdmax=0.45n A=0.3 Cgs=1.77n Cjo=2.09n M=0.35 Is=13.7p VJ=0.8 N=1.07 TT=90n ksubthres=.1 mfg=Infineon Vds=100 Ron=15.9m Qg=11n)