.model BSC205N10LS VDMOS(Rg=1.5 Vto=2.9 Rd=15.1m Rs=276u Rb=4.15m Kp=110.1 Lambda=0.03 Cgdmin=9p Cgdmax=0.53n A=0.3 Cgs=2.09n Cjo=1.21n M=0.35 Is=8.1p VJ=0.8 N=1.07 TT=90n ksubthres=.1 mfg=Infineon Vds=100 Ron=20.5m Qg=14n)