.model BSC265N10LSF VDMOS(Rg=1.5 Vto=2.8 Rd=14.53m Rs=276u Rb=4.15m Kp=49.2 Lambda=0.03 Cgdmin=9p Cgdmax=0.26n A=0.3 Cgs=1.05n Cjo=1.24n M=0.35 Is=8.1p VJ=0.8 N=1.07 TT=90n ksubthres=.1 mfg=Infineon Vds=100 Ron=26.5m Qg=7n)