.model BSC252N10NSF VDMOS(Rg=1.5 Vto=4.25 Rd=11.72m Rs=276u Rb=2.15m Kp=21.3 Lambda=0.03 Cgdmin=9p Cgdmax=0.26n A=0.3 Cgs=0.81n Cjo=0.85n M=0.35 Is=8.1p VJ=0.8 N=1.11 TT=90n ksubthres=.1 mfg=Infineon Vds=100 Ron=25.2m Qg=12n)