.model BSC360N15NS3 VDMOS(Rg=2.1 Vto=4.4 Rd=24.34m Rs=251u Rb=2.72m Kp=24.5 Lambda=0.02 Cgdmin=3p Cgdmax=0.13n A=0.5 Cgs=0.89n Cjo=1.33n M=0.4 Is=33.8p VJ=0.9 N=1.185 TT=100n ksubthres=.1 mfg=Infineon Vds=150 Ron=36m Qg=11n)