.model BSC42DN25NS3 VDMOS(Rg=2 Vto=3.7 Rd=327.37m Rs=233u Rb=23.78m Kp=7 Lambda=0.015 Cgdmin=1p Cgdmax=0.04n A=0.5 Cgs=0.25n Cjo=0.38n M=0.48 Is=2.4p VJ=0.9 N=1.12 TT=150n ksubthres=.1 mfg=Infineon Vds=250 Ron=425m Qg=3n)