.model BSC750N10ND VDMOS(Rg=0.8 Vto=4.15 Rd=41.21m Rs=5.06m Rb=16.69m Kp=10.2 Lambda=0.03 Cgdmin=3p Cgdmax=0.15n A=0.3 Cgs=0.47n Cjo=0.35n M=0.35 Is=2.4p VJ=0.8 N=1.11 TT=90n ksubthres=.1 mfg=Infineon Vds=100 Ron=75m Qg=7n)