.model BSF050N03LQ3 VDMOS(Rg=0.4 Vto=2.77 Rd=3.19m Rs=258u Rb=1.38m Kp=192.7 Lambda=0.09 Cgdmin=27p Cgdmax=0.41n A=0.6 Cgs=1.71n Cjo=1.9n M=0.3 Is=14.9p VJ=0.9 N=1.1 TT=3n ksubthres=.1 mfg=Infineon Vds=30 Ron=5m Qg=11n)