.model BSF045N03MQ3 VDMOS(Rg=1.4 Vto=2.52 Rd=2.65m Rs=348u Rb=1.29m Kp=239.7 Lambda=0.07 Cgdmin=45p Cgdmax=0.63n A=0.6 Cgs=2.58n Cjo=2.12n M=0.3 Is=15.7p VJ=0.9 N=1.11 TT=3n ksubthres=.1 mfg=Infineon Vds=30 Ron=4.5m Qg=17n)