.model BSF045N03LQ3 VDMOS(Rg=1.4 Vto=2.77 Rd=2.81m Rs=348u Rb=1.33m Kp=219.7 Lambda=0.09 Cgdmin=31p Cgdmax=0.47n A=0.6 Cgs=1.95n Cjo=2.12n M=0.3 Is=17p VJ=0.9 N=1.1 TT=3n ksubthres=.1 mfg=Infineon Vds=30 Ron=4.5m Qg=13n)