.model BSF024N03LT3 VDMOS(Rg=0.5 Vto=2.77 Rd=1.51m Rs=300u Rb=820u Kp=415 Lambda=0.09 Cgdmin=59p Cgdmax=0.89n A=0.6 Cgs=3.68n Cjo=3.7n M=0.3 Is=32.1p VJ=0.9 N=1.1 TT=3n ksubthres=.1 mfg=Infineon Vds=30 Ron=2.4m Qg=24n)