.model BSF050N03MQ3 VDMOS(Rg=0.5 Vto=2.52 Rd=3.01m Rs=258u Rb=1.33m Kp=210.1 Lambda=0.07 Cgdmin=39p Cgdmax=0.55n A=0.6 Cgs=2.26n Cjo=1.9n M=0.3 Is=13.7p VJ=0.9 N=1.11 TT=3n ksubthres=.1 mfg=Infineon Vds=30 Ron=5m Qg=15n)