.model BSF024N03MT3 VDMOS(Rg=0.5 Vto=2.52 Rd=1.43m Rs=300u Rb=800u Kp=452.6 Lambda=0.07 Cgdmin=85p Cgdmax=1.18n A=0.6 Cgs=4.86n Cjo=3.7n M=0.3 Is=29.6p VJ=0.9 N=1.11 TT=3n ksubthres=.1 mfg=Infineon Vds=30 Ron=2.4m Qg=31n)