.model BSF030NE2LQ VDMOS(Rg=0.5 Vto=2.33 Rd=1.72m Rs=123u Rb=1.08m Kp=358.1 Lambda=0.09 Cgdmin=31p Cgdmax=0.55n A=0.6 Cgs=1.64n Cjo=1.98n M=0.75 Is=18.6p VJ=2.5 N=1.12 TT=3n ksubthres=.1 mfg=Infineon Vds=25 Ron=3m Qg=11n)