.model BSG0811NDQ1 VDMOS(Rg=.65 Vto=2.2 Rd=1.45m Rs=.6m Rb=1.1m Kp=210 Ksubthres=.1 Mtriode=1.7 Lambda=.3 Cgdmin=40p Cgdmax=250p A=.5 Cgs=800p Cjo=1.5n M=.5 Is=20p VJ=1 N=1.12 mfg=Infineon Vds=25 Ron=2.4m Qg=5.6n)