.model BSH114 VDMOS(Rg=3 Rd=.2 Rs=.2 Vto=3 Kp=1.5 Cgdmax=.2n Cgdmin=.02n Cgs=.3n Cjo=.09n Is=9.2p Rb=.3 ksubthres=.1 mfg=NXP Vds=100 Ron=.5 Qg=4.6n)