.model BSO051N03MS VDMOS(Rg=1.5 Vto=2.52 Rd=2.45m Rs=1.43m Rb=2.2m Kp=291.5 Lambda=0.07 Cgdmin=54p Cgdmax=0.76n A=0.6 Cgs=3.13n Cjo=2.51n M=0.3 Is=19.1p VJ=0.9 N=1.11 TT=3n ksubthres=.1 mfg=Infineon Vds=30 Ron=6.2m Qg=20n)