.model BSO040N03MS VDMOS(Rg=1.5 Vto=2.52 Rd=1.89m Rs=1.21m Rb=1.79m Kp=388.3 Lambda=0.07 Cgdmin=73p Cgdmax=1.02n A=0.6 Cgs=4.17n Cjo=3.23n M=0.3 Is=25.4p VJ=0.9 N=1.11 TT=3n ksubthres=.1 mfg=Infineon Vds=30 Ron=4.9m Qg=27n)