.model BSO140N08NS3 VDMOS(Rg=2 Vto=3.9 Rd=6.7m Rs=1.73m Rb=4.43m Kp=58.4 Lambda=0.03 Cgdmin=8p Cgdmax=0.42n A=0.2 Cgs=1.29n Cjo=1.16n M=0.27 Is=25.1p VJ=0.9 N=1.16 TT=40n ksubthres=.1 mfg=Infineon Vds=80 Ron=14m Qg=19n)