.model BSO150N03MD VDMOS(Rg=1.1 Vto=2.52 Rd=7.87m Rs=3.52m Rb=6.07m Kp=88.3 Lambda=0.07 Cgdmin=17p Cgdmax=0.23n A=0.6 Cgs=0.95n Cjo=0.92n M=0.3 Is=5.8p VJ=0.9 N=1.11 TT=3n ksubthres=.1 mfg=Infineon Vds=30 Ron=18.2m Qg=6n)