.model BSO220N03MS VDMOS(Rg=1.3 Vto=2.52 Rd=12.22m Rs=2.73m Rb=6.81m Kp=55.1 Lambda=0.07 Cgdmin=10p Cgdmax=0.14n A=0.6 Cgs=0.59n Cjo=0.64n M=0.3 Is=3.6p VJ=0.9 N=1.11 TT=3n ksubthres=.1 mfg=Infineon Vds=30 Ron=27m Qg=4n)