.model BSO440N10NS3 VDMOS(Rg=0.8 Vto=3.63 Rd=30.04m Rs=1.9m Rb=7.24m Kp=20.3 Lambda=0.03 Cgdmin=2p Cgdmax=0.13n A=0.2 Cgs=0.6n Cjo=0.49n M=0.3 Is=22.4p VJ=0.9 N=1.19 TT=60n ksubthres=.1 mfg=Infineon Vds=100 Ron=44m Qg=8n)