.model BSP89 VDMOS(Rg=3 Rd=2.1 Rs=1.7 mtriode=.8 lambda=0.01 Vto=1.6 ksubthres=70m Kp=1.1 Cgdmax=300p Cgdmin=3p A=1 Cgs=70p Cjo=10p M=.25 Vj=.9 Is=600f Rb=.3 mfg=Infineon Vds=240 Ron=4.9 Qg=4.3n)