.model BSS123 VDMOS(Rg=3 Rd=2.4 Rs=1.8 Vto=1.6 Kp=1 Cgdmax=.1n Cgdmin=.01n Cgs=.1n Cjo=.03n Is=2.8p Rb=3 ksubthres=.1 mfg=Fairchild Vds=100 Ron=6 Qg=1.4n)