.model BSS145 VDMOS(Rg=3 Vto=2.8 Rd=1.4 Rs=1 Rb=1.75 Kp=.15 Cgdmax=.08n Cgdmin=.001n Cgs=.01n Cjo=.004n Is=.5p ksubthres=.1 mfg=Infineon Vds=100 Ron=3500m Qg=2n)