.model BSZ0901NSI VDMOS(Rg=0.8 Vto=2.33 Rd=770u Rs=662u Rb=2.9m Kp=511.8 Lambda=0.09 Cgdmin=51p Cgdmax=1.26n A=0.6 Cgs=2.42n Cjo=3.1n M=0.75 Is=30702p VJ=2.5 N=1.12 TT=1p ksubthres=.1 mfg=Infineon Vds=30 Ron=2.1m Qg=19n)