.model BSZ065N03LS VDMOS(Rg=1 Vto=2.3 Rd=3m Rs=990u Rb=3.47m Kp=135.8 Lambda=0.07 Cgdmin=17p Cgdmax=0.3n A=0.6 Cgs=0.63n Cjo=0.87n M=0.75 Is=7.2p VJ=2.5 N=1.12 TT=3n ksubthres=.1 mfg=Infineon Vds=30 Ron=6.5m Qg=5n)