.model BSZ040N04LS VDMOS(Rg=1.8 Vto=2.89 Rd=1.99m Rs=586u Rb=1.09m Kp=359.9 Lambda=0.09 Cgdmin=51p Cgdmax=0.77n A=0.6 Cgs=3.78n Cjo=2.68n M=0.3 Is=27.9p VJ=0.9 N=1.1 TT=3n ksubthres=.1 mfg=Infineon Vds=40 Ron=4.0m Qg=24n)