.model BSZ050N03MS VDMOS(Rg=1.4 Vto=2.52 Rd=2.62m Rs=452u Rb=1.38m Kp=241.8 Lambda=0.07 Cgdmin=45p Cgdmax=0.63n A=0.6 Cgs=2.6n Cjo=2.14n M=0.3 Is=15.8p VJ=0.9 N=1.11 TT=3n ksubthres=.1 mfg=Infineon Vds=30 Ron=6.4m Qg=17n)