.model BSZ035N03MS VDMOS(Rg=1.8 Vto=2.52 Rd=1.63m Rs=586u Rb=1.16m Kp=392.6 Lambda=0.07 Cgdmin=73p Cgdmax=1.03n A=0.6 Cgs=4.22n Cjo=3.26n M=0.3 Is=25.7p VJ=0.9 N=1.11 TT=3n ksubthres=.1 mfg=Infineon Vds=30 Ron=4.3m Qg=27n)