.model BSZ036NE2LS VDMOS(Rg=0.9 Vto=2.33 Rd=1.54m Rs=1.04m Rb=2.46m Kp=242.5 Lambda=0.09 Cgdmin=21p Cgdmax=0.37n A=0.6 Cgs=1.11n Cjo=1.4n M=0.75 Is=12.6p VJ=2.5 N=1.12 TT=3n ksubthres=.1 mfg=Infineon Vds=25 Ron=3.6m Qg=8n)