.model BSZ0920NS VDMOS(Rg=5 Vto=2.3 Rd=8.09m Rs=2.95m Rb=9.66m Kp=50.2 Lambda=0.07 Cgdmin=6p Cgdmax=0.11n A=0.6 Cgs=0.23n Cjo=0.39n M=0.75 Is=2.7p VJ=2.5 N=1.12 TT=3n ksubthres=.1 mfg=Infineon Vds=30 Ron=18m Qg=2n)