.model BSZ0905NS VDMOS(Rg=3 Vto=2.3 Rd=3.69m Rs=2.12m Rb=5.17m Kp=110.4 Lambda=0.07 Cgdmin=14p Cgdmax=0.24n A=0.6 Cgs=0.52n Cjo=0.73n M=0.75 Is=5.8p VJ=2.5 N=1.12 TT=3n ksubthres=.1 mfg=Infineon Vds=30 Ron=9m Qg=4n)