.model BSZ0902NS VDMOS(Rg=0.9 Vto=2.3 Rd=1.19m Rs=596u Rb=1.58m Kp=345.1 Lambda=0.07 Cgdmin=43p Cgdmax=0.75n A=0.6 Cgs=1.61n Cjo=1.94n M=0.75 Is=18.3p VJ=2.5 N=1.12 TT=3n ksubthres=.1 mfg=Infineon Vds=30 Ron=2.6m Qg=12n)