.model BSZ060NE2LS VDMOS(Rg=1 Vto=2.33 Rd=2.68m Rs=990u Rb=3.47m Kp=138.3 Lambda=0.09 Cgdmin=12p Cgdmax=0.21n A=0.6 Cgs=0.63n Cjo=0.87n M=0.75 Is=7.2p VJ=2.5 N=1.12 TT=3n ksubthres=.1 mfg=Infineon Vds=25 Ron=6m Qg=4n)