.model BSZ042N04NS VDMOS(Rg=1.8 Vto=4.95 Rd=1.73m Rs=586u Rb=1.09m Kp=192.7 Lambda=0.03 Cgdmin=37p Cgdmax=0.51n A=0.6 Cgs=2.79n Cjo=2.68n M=0.3 Is=27.9p VJ=0.9 N=1.1 TT=3n ksubthres=.1 mfg=Infineon Vds=40 Ron=4.2m Qg=38n)