.model BSZ035N03LS VDMOS(Rg=1.8 Vto=2.77 Rd=1.73m Rs=586u Rb=1.19m Kp=359.9 Lambda=0.09 Cgdmin=51p Cgdmax=0.77n A=0.6 Cgs=3.19n Cjo=3.26n M=0.3 Is=27.9p VJ=0.9 N=1.1 TT=3n ksubthres=.1 mfg=Infineon Vds=30 Ron=3.5m Qg=20n)