.model BSZ130N03LS VDMOS(Rg=1.1 Vto=2.77 Rd=7.5m Rs=935u Rb=3.59m Kp=80.9 Lambda=0.09 Cgdmin=12p Cgdmax=0.17n A=0.6 Cgs=0.72n Cjo=0.92n M=0.3 Is=6.3p VJ=0.9 N=1.1 TT=3n ksubthres=.1 mfg=Infineon Vds=30 Ron=13m Qg=5n)