.model BSZ105N04NS VDMOS(Rg=1 Vto=4.95 Rd=4.61m Rs=865u Rb=2.22m Kp=70.9 Lambda=0.03 Cgdmin=14p Cgdmax=0.19n A=0.6 Cgs=1.03n Cjo=1.1n M=0.3 Is=10.3p VJ=0.9 N=1.1 TT=3n ksubthres=.1 mfg=Infineon Vds=40 Ron=10.5m Qg=14n)