.model BSZ165N04NS VDMOS(Rg=1.1 Vto=4.95 Rd=7.5m Rs=935u Rb=3.15m Kp=43.3 Lambda=0.03 Cgdmin=8p Cgdmax=0.12n A=0.6 Cgs=0.63n Cjo=0.72n M=0.3 Is=6.3p VJ=0.9 N=1.1 TT=3n ksubthres=.1 mfg=Infineon Vds=40 Ron=16.5m Qg=9n)