.model BSZ130N03MS VDMOS(Rg=1.1 Vto=2.52 Rd=7.08m Rs=935u Rb=3.49m Kp=88.3 Lambda=0.07 Cgdmin=17p Cgdmax=0.23n A=0.6 Cgs=0.95n Cjo=0.92n M=0.3 Is=5.8p VJ=0.9 N=1.11 TT=3n ksubthres=.1 mfg=Infineon Vds=30 Ron=17m Qg=6n)