.model BSZ12DN20NS3 VDMOS(Rg=2.2 Vto=3.7 Rd=92.72m Rs=361u Rb=13.69m Kp=12.4 Lambda=0.015 Cgdmin=2p Cgdmax=0.07n A=0.5 Cgs=0.45n Cjo=0.68n M=0.45 Is=4.3p VJ=0.9 N=1.12 TT=120n ksubthres=.1 mfg=Infineon Vds=200 Ron=125m Qg=6n)