.model BSZ100N06LS3 VDMOS(Rg=1.3 Vto=2.5 Rd=5.61m Rs=498u Rb=1.78m Kp=87.8 Lambda=0.01 Cgdmin=7p Cgdmax=0.82n A=2.5 Cgs=2.53n Cjo=1.55n M=0.3 Is=4p VJ=0.9 N=1.06 TT=30n ksubthres=.1 mfg=Infineon Vds=60 Ron=10m Qg=15n)