.model BSZ240N12NS3 VDMOS(Rg=1.5 Vto=4.15 Rd=15.14m Rs=420u Rb=4.68m Kp=27.7 Lambda=0.03 Cgdmin=7p Cgdmax=0.42n A=0.3 Cgs=1.28n Cjo=0.96n M=0.35 Is=6.4p VJ=0.8 N=1.11 TT=90n ksubthres=.1 mfg=Infineon Vds=120 Ron=24m Qg=20n)