.model BSZ22DN20NS3 VDMOS(Rg=2 Vto=3.7 Rd=163.71m Rs=564u Rb=24.11m Kp=7 Lambda=0.015 Cgdmin=1p Cgdmax=0.04n A=0.5 Cgs=0.25n Cjo=0.38n M=0.45 Is=2.4p VJ=0.9 N=1.12 TT=120n ksubthres=.1 mfg=Infineon Vds=200 Ron=225m Qg=3n)