.model BSZ340N08NS3 VDMOS(Rg=1.1 Vto=3.9 Rd=18.1m Rs=1.06m Rb=8.6m Kp=20.9 Lambda=0.03 Cgdmin=3p Cgdmax=0.15n A=0.2 Cgs=0.46n Cjo=0.41n M=0.27 Is=9p VJ=0.9 N=1.16 TT=40n ksubthres=.1 mfg=Infineon Vds=80 Ron=34m Qg=7n)