.model BSZ42DN25NS3 VDMOS(Rg=2 Vto=3.7 Rd=327.37m Rs=564u Rb=24.11m Kp=7 Lambda=0.015 Cgdmin=1p Cgdmax=0.04n A=0.5 Cgs=0.25n Cjo=0.38n M=0.48 Is=2.4p VJ=0.9 N=1.12 TT=150n ksubthres=.1 mfg=Infineon Vds=250 Ron=425m Qg=3n RthetaJA=60 Imult=120 Iexponent=.3 R6=170m C6=.0414u R5=237m C5=.0253u R4=2.19 C4=.342u R3=736m C3=1.6m R2=110m C2=7.69n R1=134m C1=973p)