.model BUK7Y7R640E VDMOS(Rg=1.98 Vto=3.67 Rd=3m Rs=100u Rb=1.7m Kp=67.7 Lambda=0 Cgdmin=165p Cgdmax=1.21n A=0.6 Cgs=1.14n Cjo=1n M=0.63 Is=0.4p VJ=0.5 N=1 TT=3n Fc=0.5 Bv=44 Ibv=250u Nbv=1 ksubthres=.1 mfg=NXP Vds=40 Ron=7.6m Qg=26.2n)