.model BUK9K3560E VDMOS(Rg=4.28 Vto=2.03 Rd=24m Rs=100u Rb=3.5m Kp=57.1 Lambda=0 Cgdmin=59.2p Cgdmax=481p A=0.6 Cgs=0.76n Cjo=0.33n M=0.61 Is=1p VJ=0.63 N=1 TT=3n Fc=0.5 Bv=66 Ibv=250u Nbv=1 ksubthres=.1 mfg=NXP Vds=60 Ron=35m Qg=14.2n)