.model BUK9219-55A VDMOS(Rg=3 Vto=1.7 Rd=8m Rs=6m Rb=10m Kp=70 Cgdmax=2.5n Cgdmin=.4n Cgs=2n Cjo=1n Is=80p ksubthres=.1 mfg=NXP Vds=55 Ron=20m Qg=40n)