.model FDB2532 VDMOS(Rg=3 Vto=3.5 Rd=6.4m Rs=1.6m Rb=8m Kp=40 lambda=.01 Cgdmax=3n Cgdmin=.5n Cgs=4n Cjo=1.64n Is=164p ksubthres=.1 mfg=Fairchild Vds=150 Ron=16m Qg=82n)