.model FDB3682 VDMOS(Rg=3 Rd=26.8m Vto=4 mtriode=1.8 Kp=18 Cgdmax=400p Cgdmin=20p A=.5 Cgs=1.25n Cjo=1n M=.6 Is=1.8p Rb=14.2m ksubthres=.1 mfg=Fairchild Vds=100 Ron=32m Qg=18.5n)