.model FDB33N25 VDMOS(Rg=3 Rd=40m Rs=27m Vto=5.35 Kp=35 lambda=.05 Cgdmax=1.1n Cgdmin=25p Cgs=1.7n Cjo=800p Is=7.94p Rb=7m ksubthres=.1 mfg=Fairchild Vds=250 Ron=94m Qg=37n)