.model FDB8030L VDMOS(Rg=1.5 Vto=2 Rd=2.5m Rs=0 Rb=5.6m Kp=250 mtriode=2 Lambda=.001 Cgdmin=1n Cgdmax=9500p Cgs=8850p Cjo=5900p Is=.11n N=1.128 ksubthres=.1 mfg=Fairchild Vds=30 Ron=4m Qg=120n)