.model FDC2512 VDMOS(Rg=3 Vto=2.6 Rd=180m Rs=45m Rb=225m Kp=4 lambda=.05 Cgdmax=.2n Cgdmin=.02n Cgs=.5n Cjo=.16n Is=16p ksubthres=.1 mfg=Fairchild Vds=150 Ron=450m Qg=8n)