.model FDC5614P VDMOS(pchan Rg=3 Vto=-1.85 Rd=42m Rs=10.5m Rb=21m Kp=8. Lambda=.02 Cgdmax=.34n Cgdmin=.05n Cgs=.96n Cjo=.96n Is=17p ksubthres=.1 mfg=Fairchild Vds=-60 Ron=105m Qg=15n)