.model FDC637AN VDMOS(Rg=3 Rd=9.6m Rs=7.2m Vto=1.1 Kp=62 Cgdmax=1.2n Cgdmin=.05n Cgs=1.3n Cjo=.21n Is=21p Rb=12m ksubthres=.1 mfg=Fairchild Vds=20 Ron=24m Qg=10.5n)