.model FDC638P VDMOS(pchan Rg=3 Rd=14m Rs=11m Vto=-1.1 Kp=22 Cgdmax=1.1n Cgdmin=.08n cgs=1n Cjo=1n Is=5pA Rb=21m N=1 ksubthres=.1 mfg=Fairchild Vds=-20 Ron=39m Qg=13n)