.model FDH210N08 VDMOS(Rg=3 Vto=3.8 Rd=2.2m Rs=.6m Rb=3m Kp=100 lambda=.05 Cgdmax=9.3n Cgdmin=2.32n Cgs=4n Cjo=4.64n Is=464p ksubthres=.1 mfg=Fairchild Vds=75 Ron=5.5m Qg=232n)