.model FDMC8462 VDMOS(Rg=1 Vto=2.6 Rd=5m Rs=0 Rb=2m Kp=100 mtriode=2 Lambda=.08 Cgdmin=150p Cgdmax=800p Cgs=1.7n Cjo=1n Is=200p N=1.2 ksubthres=.1 mfg=Fairchild Vds=40 Ron=7m Qg=15n)