.model FDMS3622SQ1 VDMOS(mtriode=2 Rg=1.4 Vto=1.58 Rd=3m Rs=.3m Rb=3.m Kp=130 Lambda=.2 Cgdmin=70p Cgdmax=.68n A=.9 Cgs=1.6n Cjo=1.3n M=0.3 Vj=.9 Is=142p N=1.1 ksubthres=.1 mfg=Fairchild Vds=25 Ron=5m Qg=12n)