.model FDMS3622SQ2 VDMOS(mtriode=3 Rg=.8 Vto=1.87 Rd=.8m Rs=.08m Rb=5m Kp=280 Lambda=.5 Cgdmin=120p Cgdmax=2n A=.9 Cgs=6.3n Cjo=3.5n M=0.42 Vj=.9 Is=10u N=1.1 ksubthres=.1 mfg=Fairchild Vds=25 Ron=1.1m Qg=40n)