.model FDMS86500DC VDMOS(Rg=3 Vto=4.9 Rd=.74m Rs=.1m Rb=.6m Kp=70 Mtriode=2.7 Cgdmax=1.4n Cgdmin=10p Cgs=5.5n Cjo=4n m=.4 a=.2 Vj=.7 lambda=110m Is=4p ksubthres=.1 mfg=Fairchild Vds=60 Ron=1.9m Qg=76n)