.model FDR4420A VDMOS(Rg=3 Vto=2.2 Rd=3.6m Rs=2.7m Rb=5m Kp=92 Cgdmax=1.6n Cgdmin=.6n Cgs=2.2n Cjo=.46n Is=46p ksubthres=.1 mfg=Fairchild Vds=30 Ron=9m Qg=23n)