.model FDR840P VDMOS(pchan Rg=3 Vto=-0.9 Rd=4.8m Rs=1.2m Rb=6m Kp=50 lambda=.02 Cgdmax=3n Cgdmin=.8n Cgs=3.7n Cjo=1.2n Is=82p ksubthres=.1 mfg=Fairchild Vds=-20 Ron=12m Qg=41n)