.model FDS2734 VDMOS(Rg=3 Rd=100m Rs=0 Vto=3.3 Kp=11 Lambda=.03 mtriode=4 Cgdmax=1000p Cgdmin=30p Cgs=2n Cjo=1n Is=2.8p Rb=3.3m ksubthres=.1 mfg=Fairchild Vds=250 Ron=117m Qg=32n)