.model FDS3570 VDMOS(Rg=3 Rd=8.8m Rs=6.6m Vto=2 Kp=66 Cgdmax=2.2n Cgdmin=.27n Cgs=3.6n Cjo=1.08n Is=108p Rb=11m ksubthres=.1 mfg=Fairchild Vds=80 Ron=22m Qg=54n)