.model FDS3580 VDMOS(Rg=3 Rd=12.4m Rs=9.3m Vto=2 Kp=48 Cgdmax=1.4n Cgdmin=.17n Cgs=2.3n Cjo=.68n Is=68p Rb=15.5m ksubthres=.1 mfg=Fairchild Vds=80 Ron=31m Qg=34n)