.model FDS4435A VDMOS(pchan Rg=3 Rd=10m Rs=7.5m Vto=-1 Kp=60 Cgdmax=.8n Cgdmin=.11n Cgs=1.4n Cjo=.42n Is=42p Rb=12.5m ksubthres=.1 mfg=Fairchild Vds=-30 Ron=25m Qg=21n)