.model FDS4559_P VDMOS(pchan Rg=3 Vto=-2.5 Rd=42m Rs=10.5m Rb=53m Kp=9 lambda=.01 Cgdmax=.5n Cgdmin=.12n Cgs=.8n Cjo=.24n Is=30p ksubthres=.1 mfg=Fairchild Vds=-60 Ron=105m Qg=15n)