.model FDS4885C_P VDMOS(pchan Rg=2.5 Vto=-2 Rd=12.4m Rs=3.1m Rb=16m Kp=19 lambda=.05 Cgdmax=1.2n Cgdmin=.2n Cgs=1.7n Cjo=.5n Is=58p ksubthres=.1 mfg=Fairchild Vds=-40 Ron=31m Qg=29n)