.model FDS4685 VDMOS(pchan Rg=3 Vto=-1.8 Rd=10.8m Rs=2.7m Rb=14m Kp=22 lambda=.005 Cgdmax=1n Cgdmin=.25n Cgs=1.5n Cjo=.5n Is=50p ksubthres=.1 mfg=Fairchild Vds=-40 Ron=27m Qg=19n)