.model FDS4410 VDMOS(Rg=3 Rd=8m Rs=6m Vto=2 Kp=70 Cgdmax=.5n Cgdmin=.07n Cgs=.9n Cjo=.26n Is=26p Rb=10m ksubthres=.1 mfg=Fairchild Vds=30 Ron=20m Qg=13n)