.model FDS4953 VDMOS(pchan Rg=3 Rd=38m Rs=28.5m Vto=-1 Kp=9 Cgdmax=.3n Cgdmin=.04n Cgs=.5n Cjo=.16n Is=16p Rb=47.5m ksubthres=.1 mfg=Fairchild Vds=-30 Ron=95m Qg=8n)