.model FDS5670 VDMOS(Rg=3 Vto=2.4 Rd=6m Rs=4.5m Rb=8m Kp=25 Cgdmax=2n Cgdmin=.4n Cgs=2n Cjo=.6n Is=98p ksubthres=.1 mfg=Fairchild Vds=60 Ron=15m Qg=49n)