.model FDS5690 VDMOS(Rg=3 Rd=13.2m Rs=9.9m Vto=2 Kp=44 Cgdmax=.9n Cgdmin=.12n Cgs=1.5n Cjo=.46n Is=46p Rb=16.5m ksubthres=.1 mfg=Fairchild Vds=60 Ron=33m Qg=23n)