.model FDS5680 VDMOS(Rg=3 Rd=10m Rs=7.5m Vto=2 Kp=60 Cgdmax=1.2n Cgdmin=.15n Cgs=2n Cjo=.6n Is=60p Rb=12.5m ksubthres=.1 mfg=Fairchild Vds=60 Ron=25m Qg=30n)