.model FDS6294 VDMOS(Rg=3 Vto=2.2 Rd=4.8m Rs=3.6m Rb=6m Kp=80 Cgdmax=.6n Cgdmin=.15n Cgs=1n Cjo=.3n Is=20p ksubthres=.1 mfg=Fairchild Vds=30 Ron=12m Qg=10n)