.model FDS6975 VDMOS(pchan Rg=3 Rd=18m Rs=13.5m Vto=-1 Kp=20 Cgdmax=.6n Cgdmin=.08n Cgs=1n Cjo=.3n Is=30p Rb=22.5m ksubthres=.1 mfg=Fairchild Vds=-30 Ron=45m Qg=15n)