.model FDS6890A VDMOS(Rg=3 Rd=7.6m Rs=5.7m Vto=2 Kp=72 Cgdmax=.9n Cgdmin=.12n Cgs=1.5n Cjo=.46n Is=46p Rb=9.5m ksubthres=.1 mfg=Fairchild Vds=20 Ron=19m Qg=23n)