.model FDS6612A VDMOS(Rg=3 Rd=12m Rs=9m Vto=2 Kp=50 Cgdmax=.4n Cgdmin=.05n Cgs=.6n Cjo=.18n Is=18p Rb=15m ksubthres=.1 mfg=Fairchild Vds=30 Ron=30m Qg=9n)