.model FDS6575 VDMOS(pchan Rg=3 Rd=4m Rs=2.4m Vto=-1.08 Kp=100 Cgdmax=4.4n Cgdmin=.5n cgs=3.6n Cjo=1n Is=.1nA Rb=10m N=1 ksubthres=.1 mfg=Fairchild Vds=-20 Ron=10m Qg=50n)