.model FDS6699S VDMOS(Rg=3 Vto=2 Rd=1.4m Rs=.4m Rb=2m Kp=200 lambda=.2 Cgdmax=2n Cgdmin=.4n Cgs=4.3n Cjo=1.3n Is=130p ksubthres=.1 mfg=Fairchild Vds=30 Ron=3.6m Qg=65n)