.model FDS6630A VDMOS(Rg=3 Rd=21.2m Rs=15.9m Vto=2 Kp=4 Cgdmax=.2n Cgdmin=.03n Cgs=.3n Cjo=.1n Is=10p Rb=26.5m ksubthres=.1 mfg=Fairchild Vds=30 Ron=53m Qg=5n)