.model FDS6576 VDMOS(pchan Rg=3 Rd=5.6m Rs=4.2m Vto=-1 Kp=82 Cgdmax=1.8n Cgdmin=.22n Cgs=2.9n Cjo=.88n Is=88p Rb=7m ksubthres=.1 mfg=Fairchild Vds=-20 Ron=14m Qg=44n)