.model FDS6690A VDMOS(Rg=3 Rd=6.8m Rs=5.1m Vto=2 Kp=76 Cgdmax=.7n Cgdmin=.09n Cgs=1.1n Cjo=.34n Is=34p Rb=8.5m ksubthres=.1 mfg=Fairchild Vds=30 Ron=17m Qg=17n)