.model FDS6685 VDMOS(pchan Rg=3 Rd=14m Rs=10.5m Vto=-1 Kp=40 Cgdmax=.8n Cgdmin=.1n Cgs=1.3n Cjo=.38n Is=38p Rb=17.5m ksubthres=.1 mfg=Fairchild Vds=-30 Ron=35m Qg=19n)