.model FDS6912 VDMOS(Rg=3 Rd=16.8m Rs=12.6m Vto=2 Kp=26 Cgdmax=.3n Cgdmin=.04n Cgs=.5n Cjo=.14n Is=14p Rb=21m ksubthres=.1 mfg=Fairchild Vds=30 Ron=42m Qg=7n)