.model FDS6614A VDMOS(Rg=3 Rd=10m Rs=7.5m Vto=2 Kp=60 Cgdmax=.5n Cgdmin=.06n Cgs=.8n Cjo=.24n Is=24p Rb=12.5m ksubthres=.1 mfg=Fairchild Vds=30 Ron=25m Qg=12n)