.model FDS6680 VDMOS(Rg=3 Rd=3m Rs=4.2m Vto=2.65 Kp=70 mtriode=1.6 lambda=0.06 Cgdmax=1.2n Cgdmin=160p A=.6 Cgs=1.98n Cjo=1.5n M=.5 Is=1p Rb=6.5m ksubthres=.1 mfg=Fairchild Vds=30 Ron=8.5m Qg=19n)