.model FDS6574A VDMOS(Rg=3 Rd=3m Rs=2.3m Vto=.65 Kp=95 Cgdmax=10n Cgdmin=.38n Cgs=5n Cjo=1.5n Is=150p Rb=3.8m ksubthres=.1 mfg=Fairchild Vds=20 Ron=7.5m Qg=75n)