.model FDS6961A VDMOS(Rg=3 Rd=56m Rs=42m Vto=2 Kp=5 Cgdmax=.1n Cgdmin=.01n Cgs=.1n Cjo=.04n Is=4p Rb=70m ksubthres=.1 mfg=Fairchild Vds=30 Ron=140m Qg=2n)