.model FDS6680A VDMOS(Rg=3 Rd=3m Rs=4.1m Vto=2.61 Kp=115 mtriode=1.6 lambda=0.09 Cgdmax=940p Cgdmin=100p A=.3 Cgs=1.55n Cjo=1n M=.5 Is=1p Rb=6.5m ksubthres=.1 mfg=Fairchild Vds=30 Ron=7.8m Qg=16n)