.model FDS6570A VDMOS(Rg=3 Rd=3m Rs=2.3m Vto=2 Kp=95 Cgdmax=1.9n Cgdmin=.24n Cgs=3.1n Cjo=.94n Is=94p Rb=3.8m ksubthres=.1 mfg=Fairchild Vds=20 Ron=7.5m Qg=47n)