.model FDS8962C_N VDMOS(Rg=3 Vto=2.2 Rd=12m Rs=3m Rb=15m Kp=25 lambda=.03 Cgdmax=.4n Cgdmin=.11n Cgs=.7n Cjo=.22n Is=22p ksubthres=.1 mfg=Fairchild Vds=30 Ron=30m Qg=11n)