.model FDS8962C_P VDMOS(pchan Rg=3 Vto=-2.2 Rd=20.8m Rs=5.2m Rb=26m Kp=10 lambda=.03 Cgdmax=.32n Cgdmin=.08n Cgs=.6n Cjo=.16n Is=20p ksubthres=.1 mfg=Fairchild Vds=-30 Ron=52m Qg=10n)