.model FDS9934_N VDMOS(Rg=3 Vto=1.2 Rd=14m Rs=10.5m Rb=18m Kp=40 Cgdmax=.3n Cgdmin=.1n Cgs=.7n Cjo=.15n Is=12p ksubthres=.1 mfg=Fairchild Vds=20 Ron=35m Qg=6.2n)