.model FDS9933A VDMOS(pchan Rg=3 Rd=30m Rs=22.5m Vto=-1 Kp=12 Cgdmax=.3n Cgdmin=.04n Cgs=.5n Cjo=.16n Is=16p Rb=37.5m ksubthres=.1 mfg=Fairchild Vds=-20 Ron=75m Qg=8n)