.model FDW2503NZ VDMOS(Rg=3 Vto=1 Rd=8m Rs=2m Rb=10m Kp=30 lambda=.02 Cgdmax=.7n Cgdmin=.16n Cgs=1n Cjo=.3n Is=35p ksubthres=.1 mfg=Fairchild Vds=20 Ron=20m Qg=12n)