.model FDZ7064N VDMOS(Rg=3 Vto=1.4 Rd=3.2m Rs=2.4m Rb=4m Kp=90 Cgdmax=3.5n Cgdmin=.2n Cgs=2.5n Cjo=.62n Is=62p ksubthres=.1 mfg=Fairchild Vds=30 Ron=8m Qg=31n)