.model FQB11P06 VDMOS(pchan Rg=3 Rd=70m Rs=52m Vto=-4 lambda=.3 Kp=6 Cgdmax=.5n Cgdmin=.07n Cgs=.9n Cjo=.26n Is=26p Rb=87m ksubthres=.1 mfg=Fairchild Vds=-60 Ron=175m Qg=13n)