.model FQB55N10 VDMOS(Rg=3 Rd=1m Rs=18m Vto=3.8 mtriode=2 theta=.5 Kp=150 Cgdmax=5n Cgdmin=10p A=.5 Cgs=2n cjo=3n M=.48 Is=3.9p Rb=6m ksubthres=.1 mfg=Fairchild Vds=100 Ron=21m Qg=75n)