.model HAT1072H VDMOS(pchan Rg=3 Rd=1.4m Rs=1.1m Vto=-2 Kp=103 lambda=.03 Cgdmax=4.2n Cgdmin=.5n Cgs=4.3n Cjo=3n Is=310p Rb=1.8m ksubthres=.1 mfg=Renesas Vds=-30 Ron=3.6m Qg=155n)