.model HAT2168H VDMOS(Rg=.55 Rd=2.4m Rs=1.8m Vto=2 lambda=.05 Kp=60 Cgdmax=.4n Cgdmin=.2n Cgs=.7n Cjo=.22n Is=20p Rb=3m ksubthres=.1 mfg=Renesas Vds=30 Ron=6m Qg=11n)