.model HAT2167H VDMOS(Rg=.50 Rd=1.7m Rs=1.3m Vto=2 lambda=.05 Kp=102 Cgdmax=.7n Cgdmin=.17n Cgs=1.1n Cjo=.34n Is=34p Rb=2.1m ksubthres=.1 mfg=Renesas Vds=30 Ron=4.2m Qg=17n)