.model HAT2044R VDMOS(Rg=3 Vto=1 Rd=2.8m Rs=2.1m Rb=4m Kp=120 Cgdmax=1.9n Cgdmin=.48n Cgs=3n Cjo=.96n Is=96p ksubthres=.1 mfg=Renesas Vds=30 Ron=7m Qg=48n)