.model HAT2166H VDMOS(Rg=.50 Rd=1.2m Rs=.9m Vto=2 lambda=.08 Kp=114 Cgdmax=1.1n Cgdmin=.27n Cgs=1.8n Cjo=.54n Is=54p Rb=1.5m ksubthres=.1 mfg=Renesas Vds=30 Ron=2.9m Qg=27n)