.model HAT2160H VDMOS(Rg=3 Vto=2.2 Rd=.8m Rs=.2m Rb=1m Kp=150 lambda=.05 Cgdmax=1.6n Cgdmin=.45n Cgs=3n Cjo=.9n Is=90p ksubthres=.1 mfg=Renesas Vds=20 Ron=2.1m Qg=28n)