.model HAT2164H VDMOS(Rg=.50 Rd=1m Rs=.8m Vto=2 lambda=.05 Kp=105 Cgdmax=2n Cgdmin=.6n Cgs=3.3n Cjo=1n Is=100p Rb=1.3m ksubthres=.1 mfg=Renesas Vds=30 Ron=2.5m Qg=50n)