.model IPA037N08N3 VDMOS(Rg=1.9 Vto=3.9 Rd=1.72m Rs=748u Rb=1.32m Kp=274.4 Lambda=0.03 Cgdmin=39p Cgdmax=1.95n A=0.2 Cgs=6.05n Cjo=5.43n M=0.27 Is=117.8p VJ=0.9 N=1.16 TT=40n ksubthres=.1 mfg=Infineon Vds=80 Ron=3.75m Qg=88n)