.model IPA100N08N3 VDMOS(Rg=1.6 Vto=3.9 Rd=4.98m Rs=947u Rb=2.88m Kp=81.4 Lambda=0.03 Cgdmin=12p Cgdmax=0.58n A=0.2 Cgs=1.79n Cjo=1.61n M=0.27 Is=35p VJ=0.9 N=1.16 TT=40n ksubthres=.1 mfg=Infineon Vds=80 Ron=10m Qg=26n)