.model IPA105N15N3 VDMOS(Rg=2 Vto=4.4 Rd=7.06m Rs=751u Rb=1.43m Kp=88.6 Lambda=0.02 Cgdmin=11p Cgdmax=0.48n A=0.5 Cgs=3.22n Cjo=4.83n M=0.4 Is=122.4p VJ=0.9 N=1.185 TT=100n ksubthres=.1 mfg=Infineon Vds=150 Ron=10.5m Qg=41n)