.model IPB054N06N3 VDMOS(Rg=1.2 Vto=4.35 Rd=2.28m Rs=953u Rb=1.81m Kp=163.2 Lambda=0.01 Cgdmin=12p Cgdmax=1.28n A=2.5 Cgs=4.96n Cjo=3.52n M=0.3 Is=9.9p VJ=0.9 N=1.06 TT=30n ksubthres=.1 mfg=Infineon Vds=60 Ron=5.4m Qg=61n)