.model IPB020N04N VDMOS(Rg=1.6 Vto=4.95 Rd=670u Rs=595u Rb=785u Kp=498.5 Lambda=0.03 Cgdmin=95p Cgdmax=1.33n A=0.6 Cgs=7.21n Cjo=6.46n M=0.3 Is=72.1p VJ=0.9 N=1.1 TT=3n ksubthres=.1 mfg=Infineon Vds=40 Ron=2.0m Qg=98n)