.model IPB011N04L VDMOS(Rg=1.5 Vto=2.89 Rd=380u Rs=327u Rb=417u Kp=1941.4 Lambda=0.09 Cgdmin=277p Cgdmax=4.16n A=0.6 Cgs=20.38n Cjo=12.99n M=0.3 Is=150.4p VJ=0.9 N=1.1 TT=3n ksubthres=.1 mfg=Infineon Vds=40 Ron=1.1m Qg=127n)