.model IPB075N04L VDMOS(Rg=1.4 Vto=2.89 Rd=3.55m Rs=1.52m Rb=2.41m Kp=199.8 Lambda=0.09 Cgdmin=29p Cgdmax=0.43n A=0.6 Cgs=2.1n Cjo=1.58n M=0.3 Is=15.5p VJ=0.9 N=1.1 TT=3n ksubthres=.1 mfg=Infineon Vds=40 Ron=7.5m Qg=13n)