.model IPB042N10N3 VDMOS(Rg=1.4 Vto=3.63 Rd=2.31m Rs=748u Rb=1.16m Kp=266.6 Lambda=0.03 Cgdmin=31p Cgdmax=1.64n A=0.2 Cgs=6.28n Cjo=4.96n M=0.3 Is=294.5p VJ=0.9 N=1.19 TT=60n ksubthres=.1 mfg=Infineon Vds=100 Ron=4.2m Qg=88n)