.model IPB009N03L VDMOS(Rg=1.5 Vto=2.77 Rd=330u Rs=327u Rb=437u Kp=1941.4 Lambda=0.09 Cgdmin=277p Cgdmax=4.16n A=0.6 Cgs=17.22n Cjo=15.24n M=0.3 Is=150.4p VJ=0.9 N=1.1 TT=3n ksubthres=.1 mfg=Infineon Vds=30 Ron=0.95m Qg=111n)