.model IPB039N04L VDMOS(Rg=1.6 Vto=2.89 Rd=1.64m Rs=941u Rb=1.35m Kp=438.1 Lambda=0.09 Cgdmin=63p Cgdmax=0.94n A=0.6 Cgs=4.6n Cjo=3.21n M=0.3 Is=33.9p VJ=0.9 N=1.1 TT=3n ksubthres=.1 mfg=Infineon Vds=40 Ron=3.9m Qg=29n)