.model IPB011N04N VDMOS(Rg=1.5 Vto=4.95 Rd=330u Rs=327u Rb=417u Kp=1039.6 Lambda=0.03 Cgdmin=198p Cgdmax=2.77n A=0.6 Cgs=15.04n Cjo=12.99n M=0.3 Is=150.4p VJ=0.9 N=1.1 TT=3n ksubthres=.1 mfg=Infineon Vds=40 Ron=1.1m Qg=205n)