.model IPB042N03L VDMOS(Rg=1.6 Vto=2.77 Rd=1.92m Rs=1.01m Rb=1.68m Kp=322.1 Lambda=0.09 Cgdmin=46p Cgdmax=0.69n A=0.6 Cgs=2.86n Cjo=2.96n M=0.3 Is=25p VJ=0.9 N=1.1 TT=3n ksubthres=.1 mfg=Infineon Vds=30 Ron=4.2m Qg=18n)