.model IPB025N08N3 VDMOS(Rg=2.7 Vto=3.9 Rd=830u Rs=743u Rb=1.07m Kp=482.9 Lambda=0.03 Cgdmin=68p Cgdmax=3.44n A=0.2 Cgs=10.64n Cjo=9.55n M=0.27 Is=207.3p VJ=0.9 N=1.16 TT=40n ksubthres=.1 mfg=Infineon Vds=80 Ron=2.5m Qg=155n)