.model IPB015N04N VDMOS(Rg=1.5 Vto=4.95 Rd=360u Rs=591u Rb=681u Kp=1039.6 Lambda=0.03 Cgdmin=198p Cgdmax=2.77n A=0.6 Cgs=15.04n Cjo=12.99n M=0.3 Is=150.4p VJ=0.9 N=1.1 TT=3n ksubthres=.1 mfg=Infineon Vds=40 Ron=1.5m Qg=205n RthetaJA=62 Imult=8 Iexponent=.3 R6=13.3m C6=.528u R5=22.9m C5=.42u R4=115m C4=4.36m R3=249m C3=21.1m R2=.2 C2=225m R1=15.6m C1=2.23m)