.model IPB052N04N VDMOS(Rg=1.6 Vto=4.95 Rd=1.92m Rs=1.01m Rb=1.56m Kp=172.5 Lambda=0.03 Cgdmin=33p Cgdmax=0.46n A=0.6 Cgs=2.5n Cjo=2.42n M=0.3 Is=25p VJ=0.9 N=1.1 TT=3n ksubthres=.1 mfg=Infineon Vds=40 Ron=5.2m Qg=34n)