.model IPB035N08N3 VDMOS(Rg=1.9 Vto=3.9 Rd=1.42m Rs=748u Rb=1.32m Kp=274.4 Lambda=0.03 Cgdmin=39p Cgdmax=1.95n A=0.2 Cgs=6.05n Cjo=5.43n M=0.27 Is=117.8p VJ=0.9 N=1.16 TT=40n ksubthres=.1 mfg=Infineon Vds=80 Ron=3.5m Qg=88n RthetaJA=40 Imult=30 Iexponent=.4 R6=13.6m C6=.413u R5=33m C5=.758u R4=148m C4=2.71m R3=288m C3=17.4m R2=270m C2=208m R1=10.9m C1=1.31m)