.model IPB022N04L VDMOS(Rg=1.6 Vto=2.89 Rd=800u Rs=845u Rb=1.03m Kp=931 Lambda=0.09 Cgdmin=133p Cgdmax=1.99n A=0.6 Cgs=9.77n Cjo=6.46n M=0.3 Is=72.1p VJ=0.9 N=1.1 TT=3n ksubthres=.1 mfg=Infineon Vds=40 Ron=2.2m Qg=61n)