.model IPB019N06L3 VDMOS(Rg=1.3 Vto=2.5 Rd=710u Rs=717u Rb=867u Kp=735.8 Lambda=0.01 Cgdmin=59p Cgdmax=6.87n A=2.5 Cgs=20.85n Cjo=10.92n M=0.3 Is=33.4p VJ=0.9 N=1.06 TT=30n ksubthres=.1 mfg=Infineon Vds=60 Ron=1.9m Qg=125n RthetaJA=62 Imult=25 Iexponent=.4 R6=12.5m C6=.565u R5=19.1m C5=.418u R4=130m C4=4.19m R3=236m C3=21.2m R2=246m C2=228m R1=8.48m C1=1.08m)