.model IPB080N03L VDMOS(Rg=1.3 Vto=2.77 Rd=3.95m Rs=1.56m Rb=2.95m Kp=154.5 Lambda=0.09 Cgdmin=22p Cgdmax=0.33n A=0.6 Cgs=1.37n Cjo=1.57n M=0.3 Is=12p VJ=0.9 N=1.1 TT=3n ksubthres=.1 mfg=Infineon Vds=30 Ron=8m Qg=9n)