.model IPB067N08N3 VDMOS(Rg=1.9 Vto=3.9 Rd=2.96m Rs=879u Rb=2.09m Kp=129.7 Lambda=0.03 Cgdmin=18p Cgdmax=0.92n A=0.2 Cgs=2.86n Cjo=2.57n M=0.27 Is=55.7p VJ=0.9 N=1.16 TT=40n ksubthres=.1 mfg=Infineon Vds=80 Ron=6.7m Qg=42n)