.model IPB108N15N3 VDMOS(Rg=2 Vto=4.4 Rd=6.76m Rs=609u Rb=1.29m Kp=88.6 Lambda=0.02 Cgdmin=11p Cgdmax=0.48n A=0.5 Cgs=3.22n Cjo=4.83n M=0.4 Is=122.4p VJ=0.9 N=1.185 TT=100n ksubthres=.1 mfg=Infineon Vds=150 Ron=10.8m Qg=41n)