.model IPB320N20N3 VDMOS(Rg=2.4 Vto=3.7 Rd=23.61m Rs=1.05m Rb=4.44m Kp=48.7 Lambda=0.015 Cgdmin=6p Cgdmax=0.27n A=0.5 Cgs=1.77n Cjo=2.66n M=0.45 Is=16.8p VJ=0.9 N=1.12 TT=120n ksubthres=.1 mfg=Infineon Vds=200 Ron=32m Qg=22n)