.model IPD048N06L3 VDMOS(Rg=1.2 Vto=2.5 Rd=2.28m Rs=772u Rb=1.28m Kp=218.6 Lambda=0.01 Cgdmin=17p Cgdmax=2.04n A=2.5 Cgs=6.23n Cjo=3.52n M=0.3 Is=9.9p VJ=0.9 N=1.06 TT=30n ksubthres=.1 mfg=Infineon Vds=60 Ron=4.8m Qg=37n)