.model IPD088N06N3 VDMOS(Rg=0.9 Vto=4.35 Rd=3.88m Rs=1.29m Rb=2.76m Kp=94.9 Lambda=0.01 Cgdmin=7p Cgdmax=0.75n A=2.5 Cgs=2.88n Cjo=2.16n M=0.3 Is=5.8p VJ=0.9 N=1.06 TT=30n ksubthres=.1 mfg=Infineon Vds=60 Ron=8.8m Qg=36n)