.model IPD038N04N VDMOS(Rg=1.6 Vto=4.95 Rd=1.43m Rs=723u Rb=1.13m Kp=234.6 Lambda=0.03 Cgdmin=45p Cgdmax=0.63n A=0.6 Cgs=3.39n Cjo=3.21n M=0.3 Is=33.9p VJ=0.9 N=1.1 TT=3n ksubthres=.1 mfg=Infineon Vds=40 Ron=3.8m Qg=46n)