.model IPD031N06L3 VDMOS(Rg=1.3 Vto=2.5 Rd=1.45m Rs=659u Rb=979u Kp=348.8 Lambda=0.01 Cgdmin=28p Cgdmax=3.26n A=2.5 Cgs=9.91n Cjo=5.41n M=0.3 Is=15.8p VJ=0.9 N=1.06 TT=30n ksubthres=.1 mfg=Infineon Vds=60 Ron=3.1m Qg=59n)