.model IPD088N04L VDMOS(Rg=1.3 Vto=2.89 Rd=4.57m Rs=1.12m Rb=2.28m Kp=154.5 Lambda=0.09 Cgdmin=22p Cgdmax=0.33n A=0.6 Cgs=1.62n Cjo=1.26n M=0.3 Is=12p VJ=0.9 N=1.1 TT=3n ksubthres=.1 mfg=Infineon Vds=40 Ron=8.8m Qg=10n)