.model IPD050N03L VDMOS(Rg=1.5 Vto=2.77 Rd=2.32m Rs=1.25m Rb=2.06m Kp=265.6 Lambda=0.09 Cgdmin=38p Cgdmax=0.57n A=0.6 Cgs=2.36n Cjo=2.5n M=0.3 Is=20.6p VJ=0.9 N=1.1 TT=3n ksubthres=.1 mfg=Infineon Vds=30 Ron=5m Qg=15n)