.model IPD038N06N3 VDMOS(Rg=1.3 Vto=4.35 Rd=1.45m Rs=1m Rb=1.54m Kp=260.4 Lambda=0.01 Cgdmin=19p Cgdmax=2.05n A=2.5 Cgs=7.91n Cjo=5.41n M=0.3 Is=15.8p VJ=0.9 N=1.06 TT=30n ksubthres=.1 mfg=Infineon Vds=60 Ron=3.8m Qg=98n)