.model IPD031N03M VDMOS(Rg=1.6 Vto=2.52 Rd=1.35m Rs=723u Rb=1.19m Kp=477.9 Lambda=0.07 Cgdmin=89p Cgdmax=1.25n A=0.6 Cgs=5.14n Cjo=3.88n M=0.3 Is=31.3p VJ=0.9 N=1.11 TT=3n ksubthres=.1 mfg=Infineon Vds=30 Ron=3.8m Qg=33n)