.model IPD160N04L VDMOS(Rg=1.2 Vto=2.89 Rd=8.28m Rs=2.35m Rb=4.45m Kp=84.9 Lambda=0.09 Cgdmin=12p Cgdmax=0.18n A=0.6 Cgs=0.89n Cjo=0.75n M=0.3 Is=6.6p VJ=0.9 N=1.1 TT=3n ksubthres=.1 mfg=Infineon Vds=40 Ron=16m Qg=6n)