.model IPD122N10N3 VDMOS(Rg=1.1 Vto=3.63 Rd=7.66m Rs=729u Rb=2.1m Kp=79.1 Lambda=0.03 Cgdmin=9p Cgdmax=0.49n A=0.2 Cgs=1.86n Cjo=1.47n M=0.3 Is=87.4p VJ=0.9 N=1.19 TT=60n ksubthres=.1 mfg=Infineon Vds=100 Ron=12.2m Qg=26n)