.model IPD105N04L VDMOS(Rg=1.1 Vto=2.89 Rd=5.4m Rs=1.53m Rb=2.9m Kp=130.5 Lambda=0.09 Cgdmin=19p Cgdmax=0.28n A=0.6 Cgs=1.37n Cjo=1.09n M=0.3 Is=10.1p VJ=0.9 N=1.1 TT=3n ksubthres=.1 mfg=Infineon Vds=40 Ron=10.5m Qg=9n)