.model IPD110N12N3 VDMOS(Rg=1.5 Vto=4.15 Rd=6.19m Rs=791u Rb=2.52m Kp=68.1 Lambda=0.03 Cgdmin=17p Cgdmax=1.04n A=0.3 Cgs=3.16n Cjo=2.36n M=0.35 Is=15.8p VJ=0.8 N=1.11 TT=90n ksubthres=.1 mfg=Infineon Vds=120 Ron=11m Qg=48n)