.model IPD105N03L VDMOS(Rg=1.2 Vto=2.77 Rd=5.21m Rs=1.86m Rb=3.7m Kp=116.9 Lambda=0.09 Cgdmin=17p Cgdmax=0.25n A=0.6 Cgs=1.04n Cjo=1.25n M=0.3 Is=9.1p VJ=0.9 N=1.1 TT=3n ksubthres=.1 mfg=Infineon Vds=30 Ron=10.5m Qg=7n)