.model IPD250N06N3 VDMOS(Rg=0.9 Vto=4.35 Rd=12.2m Rs=2.05m Rb=6.72m Kp=30 Lambda=0.01 Cgdmin=2p Cgdmax=0.24n A=2.5 Cgs=0.91n Cjo=0.79n M=0.3 Is=1.8p VJ=0.9 N=1.06 TT=30n ksubthres=.1 mfg=Infineon Vds=60 Ron=25m Qg=11n)