.model IPI072N10N3 VDMOS(Rg=1.6 Vto=3.63 Rd=4.21m Rs=1.04m Rb=1.74m Kp=155.8 Lambda=0.03 Cgdmin=18p Cgdmax=0.96n A=0.2 Cgs=3.67n Cjo=2.9n M=0.3 Is=172.1p VJ=0.9 N=1.19 TT=60n ksubthres=.1 mfg=Infineon Vds=100 Ron=7.2m Qg=51n)