.model IPI030N10N3 VDMOS(Rg=1.9 Vto=3.63 Rd=1.63m Rs=697u Rb=927u Kp=469.2 Lambda=0.03 Cgdmin=55p Cgdmax=2.89n A=0.2 Cgs=11.05n Cjo=8.73n M=0.3 Is=518.3p VJ=0.9 N=1.19 TT=60n ksubthres=.1 mfg=Infineon Vds=100 Ron=3m Qg=155n)