.model IPI076N12N3 VDMOS(Rg=1.5 Vto=4.15 Rd=4.3m Rs=705u Rb=1.83m Kp=105.8 Lambda=0.03 Cgdmin=27p Cgdmax=1.61n A=0.3 Cgs=4.9n Cjo=3.66n M=0.35 Is=24.5p VJ=0.8 N=1.11 TT=90n ksubthres=.1 mfg=Infineon Vds=120 Ron=7.6m Qg=75n)