.model IPI032N06N3 VDMOS(Rg=1.3 Vto=4.35 Rd=1.45m Rs=601u Rb=1.02m Kp=330.1 Lambda=0.01 Cgdmin=24p Cgdmax=2.59n A=2.5 Cgs=10.02n Cjo=6.75n M=0.3 Is=20p VJ=0.9 N=1.06 TT=30n ksubthres=.1 mfg=Infineon Vds=60 Ron=3.2m Qg=124n)