.model IPI041N12N3 VDMOS(Rg=1.3 Vto=4.15 Rd=2.23m Rs=623u Rb=1.15m Kp=222.2 Lambda=0.03 Cgdmin=57p Cgdmax=3.39n A=0.3 Cgs=10.3n Cjo=7.7n M=0.35 Is=51.5p VJ=0.8 N=1.11 TT=90n ksubthres=.1 mfg=Infineon Vds=120 Ron=4.1m Qg=157n)