.model IPI180N10N3 VDMOS(Rg=1.3 Vto=3.63 Rd=10.96m Rs=1.74m Rb=3.65m Kp=56.8 Lambda=0.03 Cgdmin=7p Cgdmax=0.35n A=0.2 Cgs=1.34n Cjo=1.06n M=0.3 Is=62.7p VJ=0.9 N=1.19 TT=60n ksubthres=.1 mfg=Infineon Vds=100 Ron=18m Qg=19n)