.model IPI110N20N3 VDMOS(Rg=2.3 Vto=3.7 Rd=8.17m Rs=878u Rb=2.01m Kp=146.6 Lambda=0.015 Cgdmin=19p Cgdmax=0.8n A=0.5 Cgs=5.33n Cjo=8n M=0.45 Is=50.7p VJ=0.9 N=1.12 TT=120n ksubthres=.1 mfg=Infineon Vds=200 Ron=11m Qg=65n)