.model IPI200N25N3 VDMOS(Rg=2.3 Vto=3.7 Rd=15.99m Rs=878u Rb=2.01m Kp=146.6 Lambda=0.015 Cgdmin=19p Cgdmax=0.8n A=0.5 Cgs=5.33n Cjo=8n M=0.48 Is=50.7p VJ=0.9 N=1.12 TT=150n ksubthres=.1 mfg=Infineon Vds=250 Ron=20m Qg=64n)