.model IPI530N15N3 VDMOS(Rg=2.1 Vto=4.4 Rd=32.88m Rs=1.86m Rb=5.17m Kp=18.3 Lambda=0.02 Cgdmin=2p Cgdmax=0.1n A=0.5 Cgs=0.66n Cjo=1n M=0.4 Is=25.2p VJ=0.9 N=1.185 TT=100n ksubthres=.1 mfg=Infineon Vds=150 Ron=53m Qg=9n)