.model IPP065N04N VDMOS(Rg=1.5 Vto=4.95 Rd=2.62m Rs=1.67m Rb=2.34m Kp=142.2 Lambda=0.03 Cgdmin=27p Cgdmax=0.38n A=0.6 Cgs=2.06n Cjo=2.04n M=0.3 Is=20.6p VJ=0.9 N=1.1 TT=3n ksubthres=.1 mfg=Infineon Vds=40 Ron=6.5m Qg=28n)