.model IPP048N12N3 VDMOS(Rg=1.8 Vto=4.15 Rd=2.52m Rs=805u Rb=1.42m Kp=192.5 Lambda=0.03 Cgdmin=49p Cgdmax=2.93n A=0.3 Cgs=8.92n Cjo=6.67n M=0.35 Is=44.6p VJ=0.8 N=1.11 TT=90n ksubthres=.1 mfg=Infineon Vds=120 Ron=4.8m Qg=136n)