.model IPP024N06N3 VDMOS(Rg=1.3 Vto=4.35 Rd=1.01m Rs=717u Rb=967u Kp=549.4 Lambda=0.01 Cgdmin=39p Cgdmax=4.32n A=2.5 Cgs=16.68n Cjo=10.92n M=0.3 Is=33.4p VJ=0.9 N=1.06 TT=30n ksubthres=.1 mfg=Infineon Vds=60 Ron=2.4m Qg=206n)