.model IPP06CN10L VDMOS(Rg=1.6 Vto=2.9 Rd=3.95m Rs=745u Rb=1.67m Kp=461.8 Lambda=0.03 Cgdmin=38p Cgdmax=2.24n A=0.3 Cgs=8.77n Cjo=5.08n M=0.35 Is=34p VJ=0.8 N=1.07 TT=90n ksubthres=.1 mfg=Infineon Vds=100 Ron=6.5m Qg=57n)