.model IPP05CN10L VDMOS(Rg=1.9 Vto=2.9 Rd=3.09m Rs=805u Rb=1.51m Kp=605.5 Lambda=0.03 Cgdmin=49p Cgdmax=2.93n A=0.3 Cgs=11.5n Cjo=6.67n M=0.35 Is=44.6p VJ=0.8 N=1.07 TT=90n ksubthres=.1 mfg=Infineon Vds=100 Ron=5.4m Qg=75n)