.model IPP023NE7N3 VDMOS(Rg=2.7 Vto=4.2 Rd=1.04m Rs=657u Rb=987u Kp=482.9 Lambda=0.03 Cgdmin=68p Cgdmax=3.44n A=0.2 Cgs=10.64n Cjo=7.77n M=0.27 Is=207.3p VJ=0.9 N=1.16 TT=40n ksubthres=.1 mfg=Infineon Vds=75 Ron=2.3m Qg=155n)