.model IPP08CN10L VDMOS(Rg=1.5 Vto=2.9 Rd=5.34m Rs=705u Rb=1.99m Kp=332.8 Lambda=0.03 Cgdmin=27p Cgdmax=1.61n A=0.3 Cgs=6.32n Cjo=3.66n M=0.35 Is=24.5p VJ=0.8 N=1.07 TT=90n ksubthres=.1 mfg=Infineon Vds=100 Ron=8.5m Qg=41n)