.model IPP086N10N3 VDMOS(Rg=1.9 Vto=3.63 Rd=5.12m Rs=1.15m Rb=2.01m Kp=126.1 Lambda=0.03 Cgdmin=15p Cgdmax=0.78n A=0.2 Cgs=2.97n Cjo=2.35n M=0.3 Is=139.3p VJ=0.9 N=1.19 TT=60n ksubthres=.1 mfg=Infineon Vds=100 Ron=8.6m Qg=42n)