.model IPP147N03L VDMOS(Rg=1.2 Vto=2.77 Rd=7.46m Rs=3.53m Rb=6.06m Kp=84.9 Lambda=0.09 Cgdmin=12p Cgdmax=0.18n A=0.6 Cgs=0.75n Cjo=0.96n M=0.3 Is=6.6p VJ=0.9 N=1.1 TT=3n ksubthres=.1 mfg=Infineon Vds=30 Ron=15m Qg=5n)