.model IPP12CN10L VDMOS(Rg=1.5 Vto=2.9 Rd=8.1m Rs=958u Rb=2.95m Kp=214.4 Lambda=0.03 Cgdmin=17p Cgdmax=1.04n A=0.3 Cgs=4.07n Cjo=2.36n M=0.35 Is=15.8p VJ=0.8 N=1.07 TT=90n ksubthres=.1 mfg=Infineon Vds=100 Ron=12.9m Qg=26n)