.model IPP16CN10L VDMOS(Rg=1.2 Vto=2.9 Rd=10.8m Rs=908u Rb=3.59m Kp=158.9 Lambda=0.03 Cgdmin=13p Cgdmax=0.77n A=0.3 Cgs=3.02n Cjo=1.75n M=0.35 Is=11.7p VJ=0.8 N=1.07 TT=90n ksubthres=.1 mfg=Infineon Vds=100 Ron=16m Qg=20n)