.model IPP147N12N3 VDMOS(Rg=1.2 Vto=4.15 Rd=8.63m Rs=908u Rb=3.25m Kp=50.5 Lambda=0.03 Cgdmin=13p Cgdmax=0.77n A=0.3 Cgs=2.34n Cjo=1.75n M=0.35 Is=11.7p VJ=0.8 N=1.11 TT=90n ksubthres=.1 mfg=Infineon Vds=120 Ron=14.7m Qg=36n)