.model IPP230N06L3 VDMOS(Rg=0.9 Vto=2.5 Rd=12.5m Rs=2.9m Rb=5.7m Kp=40.1 Lambda=0.01 Cgdmin=3p Cgdmax=0.37n A=2.5 Cgs=1.18n Cjo=0.79n M=0.3 Is=1.8p VJ=0.9 N=1.06 TT=30n ksubthres=.1 mfg=Infineon Vds=60 Ron=23m Qg=7n)