.model IPS090N03L VDMOS(Rg=1.1 Vto=2.77 Rd=4.87m Rs=1.53m Rb=3.18m Kp=130.5 Lambda=0.09 Cgdmin=19p Cgdmax=0.28n A=0.6 Cgs=1.16n Cjo=1.37n M=0.3 Is=10.1p VJ=0.9 N=1.1 TT=3n ksubthres=.1 mfg=Infineon Vds=30 Ron=9.2m Qg=7n)