.model IPU039N03L VDMOS(Rg=1.6 Vto=2.77 Rd=1.63m Rs=1.39m Rb=1.88m Kp=438.1 Lambda=0.09 Cgdmin=63p Cgdmax=0.94n A=0.6 Cgs=3.89n Cjo=3.88n M=0.3 Is=33.9p VJ=0.9 N=1.1 TT=3n ksubthres=.1 mfg=Infineon Vds=30 Ron=4.1m Qg=25n)