.model IPU060N03L VDMOS(Rg=1.4 Vto=2.77 Rd=3.27m Rs=1.11m Rb=2.19m Kp=199.8 Lambda=0.09 Cgdmin=29p Cgdmax=0.43n A=0.6 Cgs=1.77n Cjo=1.96n M=0.3 Is=15.5p VJ=0.9 N=1.1 TT=3n ksubthres=.1 mfg=Infineon Vds=30 Ron=6.2m Qg=11n)