.model IPU103N08N3 VDMOS(Rg=1.6 Vto=3.9 Rd=4.88m Rs=1.52m Rb=3.45m Kp=81.4 Lambda=0.03 Cgdmin=12p Cgdmax=0.58n A=0.2 Cgs=1.79n Cjo=1.61n M=0.27 Is=35p VJ=0.9 N=1.16 TT=40n ksubthres=.1 mfg=Infineon Vds=80 Ron=10.3m Qg=26n)