.model IRF1404Z VDMOS(Rg=2.0 Vto=4.0 Rd=0.15m Rs=0.0m Rb=1.6m Kp=65 Cgdmax=6.3n Cgdmin=0.130n Cgs=5n Cjo=1.4n Is=10p tt=28n ksubthres=.1 mfg=International_Rectifier Vds=40 Ron=2.7m Qg=100n)