.model IRF1405 VDMOS(Rg=3 Vto=3.9 Rd=0.6m Rs=1.1m Rb=2.97m Kp=59 Cgdmax=8.1n Cgdmin=0.34n Cgs=6.5n Cjo=3.2n Is=33p ksubthres=.1 mfg=International_Rectifier Vds=55 Ron=4.6m Qg=170n)