.model IRF1010N VDMOS(Rg=1.6 Vto=3.4 Rd=2.3m Rs=0.10m Rb=3.75m Kp=27 Cgdmax=4.0n Cgdmin=.275n Cgs=1.95n Cjo=1.6n Is=3p tt=69n ksubthres=.1 mfg=International_Rectifier Vds=55 Ron=8.1m Qg=80n)