.model IRF1010EZ VDMOS(Rg=2.0 Vto=4.0 Rd=1.471m Rs=0m Rb=3.25m Kp=32 Cgdmax=2.53n Cgdmin=.15n Cgs=2.5n Cjo=0.8n Is=3p tt=41n ksubthres=.1 mfg=International_Rectifier Vds=60 Ron=6.8m Qg=58n)