.model IRF1312S VDMOS(Rg=3 Rd=4m Rs=3m Vto=5.25 Kp=70 Cgdmax=3.7n Cgdmin=.47n Cgs=6.2n Cjo=1.86n Is=186p Rb=5m ksubthres=.1 mfg=International_Rectifier Vds=80 Ron=10m Qg=93n)