.model IRF1503S VDMOS(Rg=3 Vto=3.9 Rd=1.3m Rs=1m Rb=2m Kp=103.4 Cgdmax=3n Cgdmin=.9n Cgs=6n Cjo=1.5n Is=150p ksubthres=.1 mfg=International_Rectifier Vds=30 Ron=3.3m Qg=28n)