.model IRF1404 VDMOS(Rg=2.0 Vto=4.0 Rd=0.9m Rs=0.0m Rb=4.4m Kp=65 Cgdmax=5.5n Cgdmin=0.50n Cgs=4.98n Cjo=4.2n Is=5p tt=78n ksubthres=.1 mfg=International_Rectifier Vds=40 Ron=3.5m Qg=131n)