.model IRF1302 VDMOS(Rg=2.9 Vto=4.0 Rd=0.0m Rs=0.0m Rb=2.1m Kp=50 Cgdmax=4.85n Cgdmin=0.30n Cgs=2.18n Cjo=5.3n Is=10p tt=66n ksubthres=.1 mfg=International_Rectifier Vds=20 Ron=3.3m Qg=79n)