.model IRF1407 VDMOS(Rg=7.8 Vto=4.0 Rd=4.0m Rs=0.10m Rb=3.5m Kp=65 Cgdmax=7n Cgdmin=0.20n Cgs=7.3n Cjo=2.5n Is=10p tt=110n ksubthres=.1 mfg=International_Rectifier Vds=75 Ron=6.7m Qg=160n)