.model IRF1503 VDMOS(Rg=2.8 Vto=4 Rd=0.68m Rs=0.0m Rb=1.9m Kp=88 Cgdmax=5.6n Cgdmin=0.20n Cgs=7.0n Cjo=5.3n Is=10p tt=71n ksubthres=.1 mfg=International_Rectifier Vds=30 Ron=2.6m Qg=130n)