.model IRF1010E VDMOS(Rg=2.0 Vto=3.4 Rd=2.5m Rs=0.10m Rb=3.75m Kp=28 Cgdmax=4.5n Cgdmin=.15n Cgs=3.25n Cjo=1.8n Is=3p tt=73n ksubthres=.1 mfg=International_Rectifier Vds=60 Ron=8.1m Qg=90n)