.model IRF1310 VDMOS(Rg=3 Vto=3.7 Rd=14.4m Rs=3.6m Rb=18m Kp=14 lambda=.01 Cgdmax=5n Cgdmin=1n Cgs=1n Cjo=2.2n Is=220p ksubthres=.1 mfg=International_Rectifier Vds=100 Ron=36m Qg=110n)