.model IRF2805S VDMOS(Rg=2 Vto=3.9 Rd=1.95m Rs=0.0m Rb=2m Kp=85 Cgdmax=6.52n Cgdmin=.45n Cgs=6.0n Cjo=3.2n Is=5p ksubthres=.1 mfg=International_Rectifier Vds=55 Ron=3.9m Qg=2.6n)