.model IRF2907Z VDMOS(Rg=2.86 Vto=3.9 Rd=2.1m Rs=0.0m Rb=1.75m Kp=125 Cgdmax=7.5n Cgdmin=.35n Cgs=8.0n Cjo=1.9n Is=40p ksubthres=.1 mfg=International_Rectifier Vds=75 Ron=3.5m Qg=180n)