.model IRF2804S VDMOS(Rg=2.8 Vto=4 Rd=0.01m Rs=0.0m Rb=1.8m Kp=110 Cgdmax=6.9n Cgdmin=0.8n Cgs=6.1n Cjo=2.9n Is=10p tt=56n ksubthres=.1 mfg=International_Rectifier Vds=40 Ron=1.5m Qg=160n)