.model IRF2807Z VDMOS(Rg=1.4 Vto=3.45 Rd=2.2m Rs=0.0m Rb=2.8m Kp=29 Cgdmax=3.0n Cgdmin=0.25n Cgs=3.0n Cjo=0.8n Is=10p ksubthres=.1 mfg=International_Rectifier Vds=75 Ron=7.4m Qg=71n)