.model IRF2807 VDMOS(Rg=1.45 Vto=3.5 Rd=6.75m Rs=0.0m Rb=3.9m Kp=43 Cgdmax=4.0n Cgdmin=0.25n Cgs=3.8n Cjo=2.1n Is=4p ksubthres=.1 mfg=International_Rectifier Vds=75 Ron=13m Qg=160n)