.model IRF2903ZS VDMOS(Rg=1.4 Vto=3.95 Rd=0.1m Rs=0.10m Rb=1.4m Kp=95 Cgdmax=6.25n Cgdmin=1.5n Cgs=7n Cjo=2.7n Is=420p ksubthres=.1 mfg=International_Rectifier Vds=30 Ron=1.9m Qg=160n)