.model IRF2204S VDMOS(Rg=2.7 Vto=3.6 Rd=1.1m Rs=0.10m Rb=2m Kp=85 Cgdmax=6.25n Cgdmin=0.5n Cgs=5.1n Cjo=4.5n Is=9p tt=68n ksubthres=.1 mfg=International_Rectifier Vds=40 Ron=3.0m Qg=130n)