.model IRF6623 VDMOS(Rg=3 Vto=2.35 Rd=2.3m Rs=1.7m Rb=3m Kp=98.6 Cgdmax=.5n Cgdmin=.2n Cgs=1.4n Cjo=.22n Is=22p ksubthres=.1 mfg=International_Rectifier Vds=20 Ron=5.7m Qg=11n)