.model IRF6691 VDMOS(Rg=3 Vto=2.5 Rd=.7m Rs=.5m Rb=1m Kp=106.4 Cgdmax=1.9n Cgdmin=.7n Cgs=6.1n Cjo=.94n Is=94p ksubthres=.1 mfg=International_Rectifier Vds=20 Ron=1.8m Qg=47n)