.model IRF6620 VDMOS(Rg=3 Vto=2.5 Rd=1.1m Rs=.8m Rb=1m Kp=104.6 Cgdmax=1.5n Cgdmin=.6n Cgs=3n Cjo=.56n Is=56p ksubthres=.1 mfg=International_Rectifier Vds=20 Ron=2.7m Qg=28n)