.model IRF6617 VDMOS(Rg=2 Vto=2.42 Rd=4.5m Rs=.8m Rb=3m Kp=60 lambda=.01 mtriode=3 Cgdmax=.7n Cgdmin=.15n Cgs=1.1n Cjo=.5n Is=1.5p ksubthres=.1 mfg=International_Rectifier Vds=30 Ron=8m Qg=11n)