.model IRF6607 VDMOS(Rg=3 Rd=1.5m Rs=1.1m Vto=2 lambda=.15 Kp=50 Cgdmax=2n Cgdmin=.5n Cgs=5.3n Cjo=1n Is=100p Rb=1.9m ksubthres=.1 mfg=International_Rectifier Vds=30 Ron=3.8m Qg=50n)