.model IRF6618 VDMOS(Rg=2 Rd=1.1m Rs=0 Vto=2.2 lambda=.02 Kp=150 mtriode=1.5 Cgdmax=2.2n Cgdmin=.2n Cgs=6n Cjo=.92n Is=50p Rb=1.5m ksubthres=.1 mfg=International_Rectifier Vds=30 Ron=2.8m Qg=43n)