.model IRF6609 VDMOS(Rg=3 Vto=2.6 Rd=.8m Rs=.6m Rb=1m Kp=106 Cgdmax=1.8n Cgdmin=.86n Cgs=5.1n Cjo=.92n Is=92p ksubthres=.1 mfg=International_Rectifier Vds=20 Ron=2m Qg=46n)