.model IRF6635 VDMOS(Rg=3 Vto=1.8 Rd=.5m Rs=.1m Rb=1m Kp=45 lambda=.05 Cgdmax=3n Cgdmin=.6n Cgs=6n Cjo=1.5n Is=150p ksubthres=.1 mfg=International_Rectifier Vds=30 Ron=1.3m Qg=47n)