.model IRF6644 VDMOS(Rg=3 Vto=4.4 Rd=4m Rs=1m Rb=5m Kp=15 lambda=.1 Cgdmax=1.5n Cgdmin=.3n Cgs=1.7n Cjo=.6n Is=70p ksubthres=.1 mfg=International_Rectifier Vds=100 Ron=10m Qg=35n)