.model IRF6629PbF VDMOS(Rg=3 Vto=2.3 Rd=.6m Rs=.2m Rb=1m Kp=150 lambda=.04 Cgdmax=1.7n Cgdmin=.4n Cgs=3n Cjo=.8n Is=68p ksubthres=.1 mfg=International_Rectifier Vds=25 Ron=1.6m Qg=34n)