.model IRF7401 VDMOS(Rg=3 Rd=8.8m Rs=6.6m Vto=2 Kp=66 Cgdmax=1.6n Cgdmin=.2n Cgs=2.7n Cjo=.8n Is=80p Rb=11m ksubthres=.1 mfg=International_Rectifier Vds=20 Ron=22m Qg=40n)