.model IRF7832 VDMOS(Rg=3 Rd=1.6m Rs=1.2m Vto=2.2 Kp=112 Cgdmax=2.4n Cgdmin=.17n Cgs=4.3n Cjo=.68n Is=68p Rb=2m ksubthres=.1 mfg=International_Rectifier Vds=30 Ron=4m Qg=34n)