.model IRF7335 VDMOS(Rg=3 Vto=1.9 Rd=5.2m Rs=3.9m Rb=7m Kp=84 Cgdmax=.7n Cgdmin=.2n Cgs=1.5n Cjo=.26n Is=26p ksubthres=.1 mfg=International_Rectifier Vds=30 Ron=13m Qg=13n)