.model IRF7413ZPbF VDMOS(Rg=3 Vto=2.3 Rd=4m Rs=1m Rb=5m Kp=62 lambda=.03 Cgdmax=.4n Cgdmin=.2n Cgs=1n Cjo=.8n Is=19p ksubthres=.1 mfg=International_Rectifier Vds=30 Ron=10m Qg=9.5n)