.model IRF7220 VDMOS(pchan Rg=3 Rd=4.8m Rs=3.6m Vto=-.75 Kp=86 Cgdmax=1.5n Cgdmin=4.25n Cgs=7n Cjo=1n Is=168p Rb=6m ksubthres=.1 mfg=International_Rectifier Vds=-12 Ron=12m Qg=84n)