.model IRF7207 VDMOS(pchan Rg=3 Rd=32m Rs=24m Vto=-1 Kp=8 Cgdmax=.6n Cgdmin=.08n Cgs=1n Cjo=.3n Is=30p Rb=40m ksubthres=.1 mfg=International_Rectifier Vds=-20 Ron=80m Qg=15n)