.model IRF7204 VDMOS(pchan Rg=3 Rd=24m Rs=18m Vto=-1 Kp=15 Cgdmax=1n Cgdmin=.13n Cgs=1.7n Cjo=.5n Is=50p Rb=30m ksubthres=.1 mfg=International_Rectifier Vds=-20 Ron=60m Qg=25n)