.model IRF7413A VDMOS(Rg=3 Rd=5.4m Rs=4.1m Vto=2 Kp=83 Cgdmax=2.1n Cgdmin=.26n Cgs=3.5n Cjo=1.04n Is=104p Rb=6.8m ksubthres=.1 mfg=International_Rectifier Vds=30 Ron=13.5m Qg=52n)