.model IRF7831 VDMOS(Rg=3 Vto=2.35 Rd=1.4m Rs=1.1m Rb=2m Kp=102.8 Cgdmax=1.6n Cgdmin=.4n Cgs=2.7n Cjo=.8n Is=80p ksubthres=.1 mfg=International_Rectifier Vds=30 Ron=3.6m Qg=40n)