.model IRF7821 VDMOS(Rg=3 Vto=2.2 Rd=3.6m Rs=.9m Rb=5m Kp=30 lambda=.01 Cgdmax=.5n Cgdmin=.12n Cgs=.8n Cjo=.25n Is=26p ksubthres=.1 mfg=International_Rectifier Vds=30 Ron=9.1m Qg=9.3n)