.model IRF7201 VDMOS(Rg=3 Rs=12m Rd=5m Vto=2.64 Kp=26 Cgdmax=650p Cgdmin=135p Cgs=620p Cjo=620p a=1.5 Is=2.4p Rb=11m N=1.07 ksubthres=.1 mfg=International_Rectifier Vds=30 Ron=30m Qg=28n)