.model IRF7811AV VDMOS(Rg=3 Rd=4.4m Rs=3.3m Vto=2 Kp=88 Cgdmax=.7n Cgdmin=.09n Cgs=1.1n Cjo=.34n Is=34p Rb=5.5m ksubthres=.1 mfg=International_Rectifier Vds=30 Ron=11m Qg=17n)