.model IRF7811 VDMOS(Rg=3 Rd=3.4m Rs=2.6m Vto=2 Kp=93 Cgdmax=.8n Cgdmin=.1n Cgs=1.3n Cjo=.38n Is=38p Rb=4.3m ksubthres=.1 mfg=International_Rectifier Vds=30 Ron=8.5m Qg=19n)