.model IRF7807 VDMOS(Rg=3 Rd=10m Rs=7.5m Vto=2 Kp=60 Cgdmax=.7n Cgdmin=.09n Cgs=1.1n Cjo=.34n Is=34p Rb=12.5m ksubthres=.1 mfg=International_Rectifier Vds=30 Ron=25m Qg=17n)