.model IRF7406 VDMOS(pchan Rg=3 Rd=18m Rs=13.5m Vto=-1 Kp=20 Cgdmax=1.4n Cgdmin=.18n Cgs=2.4n Cjo=.72n Is=72p Rb=22.5m ksubthres=.1 mfg=International_Rectifier Vds=-30 Ron=45m Qg=36n)