.model IRF7309N VDMOS(Rg=3 Vto=2.26 Rd=3.58m Rs=21.5m Rb=12m Kp=18.8 Cgdmax=0.87n Cgdmin=0.10n Cgs=0.33n Cjo=0.292n Is=39f ksubthres=.1 mfg=International_Rectifier Vds=30v Ron=32m Qg=8.7n)