.model IRF7303 VDMOS(Rg=3 Rs=30m Rd=10m Vto=2.3 Kp=15 Cgdmax=800p Cgdmin=10p Cgs=500p Cjo=500p a=1.5 Is=39p Rb=66m N=1.24 ksubthres=.1 Vds=30 Ron=50m Qg=25n mfg=International_Rectifier)