.model IRF7822 VDMOS(Rg=3 Rd=2m Rs=1.5m Vto=2 Kp=100 Cgdmax=1.8n Cgdmin=.22n Cgs=2.9n Cjo=.88n Is=88p Rb=2.5m ksubthres=.1 mfg=International_Rectifier Vds=30 Ron=5m Qg=44n)