.model IRF7805 VDMOS(Rg=3 Rd=4.4m Rs=3.3m Vto=2 Kp=88 Cgdmax=1.2n Cgdmin=.16n Cgs=2.1n Cjo=.62n Is=62p Rb=5.5m ksubthres=.1 mfg=International_Rectifier Vds=30 Ron=11m Qg=31n)