.model IRF7309P VDMOS(pchan Rg=3 Vto=-2.1 Rd=12.3m Rs=40m Rb=22.5m Kp=6.5 Cgdmax=0.69n Cgdmin=0.172n Cgs=0.30n Cjo=0.283n Is=45p ksubthres=.1 mfg=International_Rectifier Vds=-30 Ron=72m Qg=9.1n)