.model IRF7413 VDMOS(Rg=3 Rd=4.4m Rs=3.3m Vto=2 Kp=88 Cgdmax=1.4n Cgdmin=.17n Cgs=2.3n Cjo=.68n Is=68p Rb=5.5m ksubthres=.1 mfg=International_Rectifier Vds=30 Ron=11m Qg=34n)