.model IRF7805ZPbF VDMOS(Rg=3 Vto=2.4 Rd=2.7m Rs=.7m Rb=3m Kp=64 lambda=.03 Cgdmax=1.5n Cgdmin=.3n Cgs=1.2n Cjo=.36n Is=36p ksubthres=.1 mfg=International_Rectifier Vds=30 Ron=6.8m Qg=18n)