.model IRF7233 VDMOS(pchan Rg=3 Rd=8m Rs=6m Vto=-1 Kp=70 Cgdmax=2n Cgdmin=.25n Cgs=3.3n Cjo=.98n Is=98p Rb=10m ksubthres=.1 mfg=International_Rectifier Vds=-12 Ron=20m Qg=49n)