.model IRF7343N VDMOS(Rg=3 Rd=20m Rs=15m Vto=1 Kp=10 Cgdmax=1.4n Cgdmin=.18n Cgs=.8n Cjo=.72n Is=72p Rb=25m ksubthres=.1 mfg=International_Rectifier Vds=55 Ron=50m Qg=36n)