.model IRF7404 VDMOS(pchan Rg=3 Rd=16m Rs=12m Vto=-1 Kp=30 Cgdmax=1.6n Cgdmin=.2n Cgs=2.7n Cjo=.8n Is=80p Rb=20m ksubthres=.1 mfg=International_Rectifier Vds=-20 Ron=40m Qg=40n)