.model IRF7403 VDMOS(Rg=3 Rd=8.8m Rs=6.6m Vto=2 Kp=66 Cgdmax=1.7n Cgdmin=.21n Cgs=2.8n Cjo=.84n Is=84p Rb=11m ksubthres=.1 mfg=International_Rectifier Vds=30 Ron=22m Qg=42n)