.model IRF7456 VDMOS(Rg=3 Rd=2.6m Rs=2m Vto=2 Kp=97 Cgdmax=1.6n Cgdmin=.21n Cgs=2.7n Cjo=.82n Is=82p Rb=3.3m ksubthres=.1 mfg=International_Rectifier Vds=20 Ron=6.5m Qg=41n)