.model IRF7343P VDMOS(pchan Rg=3 Rd=42m Rs=31m Vto=-1 Kp=1 Cgdmax=1.5n Cgdmin=.19n Cgs=.83n Cjo=.76n Is=76p Rb=52m ksubthres=.1 mfg=International_Rectifier Vds=-55 Ron=105m Qg=38n)