.model IRF7468 VDMOS(Rg=3 Rd=6.4m Rs=4.8m Vto=1.8 Kp=40 Cgdmax=.9n Cgdmin=.12n Cgs=1.5n Cjo=.46n Is=46p Rb=8m ksubthres=.1 mfg=International_Rectifier Vds=40 Ron=16m Qg=23n)