.model IRF8910 VDMOS(Rg=2.7 Vto=2.45 Rd=5.2m Rs=1.3m Rb=2.6m Kp=31.4 Lambda=.1 Cgdmax=.46n Cgdmin=.11n Cgs=.6n Cjo=.6n Is=23p ksubthres=.1 mfg=International_Rectifier Vds=20 Ron=13m Qg=7.4n)