.model IRF8721 VDMOS(Rg=1.8 Vto=2.273 Rd=4.117m Rs=1.2m Rb=0.42m Kp=82 Cgdmax=0.465n Cgdmin=0.112n Cgs=0.926n Cjo=0.28n Is=13p ksubthres=.1 mfg=International_Rectifier Vds=30 Ron=6.9m Qg=8.3n)