.model IRF9640 VDMOS(pchan Rg=3 Vto=-3.5 Rd=.15 Rs=.15 Rb=.15 Kp=8 lambda=.01 mtriode=.5 Cgdmax=1.5n Cgdmin=.07n Cgs=1n Cjo=1n Is=38p ksubthres=.1 mfg=International_Rectifier Vds=-200 Ron=.5 Qg=44n)