.model IRF9410 VDMOS(Rg=3 Rd=12m Rs=9m Vto=2 Kp=50 Cgdmax=.7n Cgdmin=.09n Cgs=1.2n Cjo=.36n Is=36p Rb=15m ksubthres=.1 mfg=International_Rectifier Vds=30 Ron=30m Qg=18n)