.model IRF9Z24S_L VDMOS(pchan Rg=3 Vto=-3.5 Rd=112m Rs=84m Rb=140m Kp=200 Cgdmax=.2n Cgdmin=.08n Cgs=1n Cjo=.1n Is=38p ksubthres=.1 mfg=International_Rectifier Vds=-60 Ron=280m Qg=19n)