.model IRFB4410Z VDMOS(Rg=0.7 Vto=4 Rd=6m Rs=0.0m Rb=3.0m Kp=150 Cgdmax=3.75n Cgdmin=0.1n Cgs=3.3n Cjo=1.7n Is=10p tt=38n ksubthres=.1 mfg=International_Rectifier Vds=100 Ron=7.2m Qg=83n)