.model IRFHM830 VDMOS(Rg=2.5 Vto=2.4 Rd=1.5m Rs=0.0m Rb=1.75m Kp=86 Cgdmax=1n Cgdmin=200p Cgs=1.5n Cjo=0.82n Is=100p ksubthres=.1 mfg=International_Rectifier Vds=30 Ron=3.0m Qg=31n)