.model IRFHS8242 VDMOS(Rg=1.9 Vto=2.3 Rd=3.5m Rs=0.0m Rb=3.05m Kp=19 Cgdmax=0.34n Cgdmin=80p Cgs=0.45n Cjo=0.19n Is=6.5p ksubthres=.1 mfg=International_Rectifier Vds=25 Ron=10m Qg=10.4n)