.model IRFH5004 VDMOS(Rg=1.7 Vto=3.7 Rd=0.4m Rs=0.10m Rb=0.9m Kp=90 Cgdmax=3.5n Cgdmin=0.4n Cgs=3n Cjo=1.7n Is=9p tt=34n ksubthres=.1 mfg=International_Rectifier Vds=40 Ron=2.2m Qg=75n)