.model IRFHM830D VDMOS(Rg=1.1 Vto=2.4 Rd=1.65m Rs=0.0m Rb=2.5m Kp=75 Cgdmax=0.85n Cgdmin=180p Cgs=1.2n Cjo=2.85n Is=225n ksubthres=.1 mfg=International_Rectifier Vds=30 Ron=3.4m Qg=27n)