.model IRFH5302D VDMOS(Rg=1.9 Vto=2.35 Rd=1.0m Rs=.0125m Rb=1.6m Kp=125 Cgdmax=2.2n Cgdmin=0.05n Cgs=3.0n Cjo=1.68n Is=200n ksubthres=.1 mfg=International_Rectifier Vds=30 Ron=2.0m Qg=55n)