.model IRFHS8342 VDMOS(Rg=1.9 Vto=2.3 Rd=7.6m Rs=0.0m Rb=2.85m Kp=24 Cgdmax=0.20n Cgdmin=60p Cgs=0.4n Cjo=0.25n Is=1.25p ksubthres=.1 mfg=International_Rectifier Vds=25 Ron=13m Qg=8.7n)