.model IRFH3702 VDMOS(Rg=2.2 Vto=2.35 Rd=3.7m Rs=0.0m Rb=3.0m Kp=68 Cgdmax=0.75n Cgdmin=60p Cgs=1n Cjo=0.56n Is=4p ksubthres=.1 mfg=International_Rectifier Vds=30 Ron=5.7m Qg=22n)