.model IRFHM831 VDMOS(Rg=0.5 Vto=2.4 Rd=4.05m Rs=0.0m Rb=3.0m Kp=52 Cgdmax=0.6n Cgdmin=55p Cgs=0.75n Cjo=0.35n Is=9p ksubthres=.1 mfg=International_Rectifier Vds=30 Ron=6.6m Qg=16n)