.model IRFH7914 VDMOS(Rg=1.3 Vto=2.2 Rd=3.99m Rs=0.0m Rb=5.8m Kp=37 Cgdmax=0.45n Cgdmin=120p Cgs=1.0n Cjo=0.35n Is=1.5p ksubthres=.1 mfg=International_Rectifier Vds=30 Ron=7.5m Qg=8.3n)