.model IRFH5302 VDMOS(Rg=1.6 Vto=2.35 Rd=0.8m Rs=0m Rb=1.2m Kp=130 Cgdmax=2.9n Cgdmin=0.015n Cgs=3.40n Cjo=1.68n Is=400p ksubthres=.1 mfg=International_Rectifier Vds=30 Ron=1.8m Qg=76n)