.model IRFH3707 VDMOS(Rg=2.0 Vto=2.4 Rd=4.5m Rs=0.0m Rb=4m Kp=27 Cgdmax=0.50n Cgdmin=45p Cgs=0.5n Cjo=0.28n Is=4p ksubthres=.1 mfg=International_Rectifier Vds=30 Ron=9.4m Qg=12n)