.model IRFH5015 VDMOS(Rg=1.7 Vto=4.95 Rd=17m Rs=0m Rb=1.45m Kp=24 Cgdmax=1.0n Cgdmin=0.07n Cgs=1.8n Cjo=1.45n Is=60p tt=42n ksubthres=.1 mfg=International_Rectifier Vds=150 Ron=25.5m Qg=33n)