.model IRFH7936 VDMOS(Rg=1.5 Vto=2.2 Rd=1.9m Rs=0.0m Rb=4.5m Kp=57 Cgdmax=1.3n Cgdmin=120p Cgs=1.8n Cjo=0.6n Is=2p ksubthres=.1 mfg=International_Rectifier Vds=30 Ron=4.1m Qg=17n)