.model IRFH5110 VDMOS(Rg=1.5 Vto=3.65 Rd=6.9m Rs=0.0m Rb=1.8m Kp=46 Cgdmax=2.3n Cgdmin=0.05n Cgs=2n Cjo=1.3n Is=60p tt=34n ksubthres=.1 mfg=International_Rectifier Vds=100 Ron=10.3m Qg=48n)