.model IRFH5053 VDMOS(Rg=0.8 Vto=4.5 Rd=6.8m Rs=0.0m Rb=3.0m Kp=24 Cgdmax=0.55n Cgdmin=.12n Cgs=1n Cjo=1.2n Is=10p tt=31n ksubthres=.1 mfg=International_Rectifier Vds=100 Ron=14.4m Qg=24n)