.model IRFH5204 VDMOS(Rg=1.7 Vto=4 Rd=0.01m Rs=0.10m Rb=1.5m Kp=45 Cgdmax=2.10n Cgdmin=0.3n Cgs=1.2n Cjo=1.2n Is=20p tt=30n ksubthres=.1 mfg=International_Rectifier Vds=40 Ron=3.6m Qg=42n)