.model IRFH5007 VDMOS(Rg=1.2 Vto=3.65 Rd=3.7m Rs=0.10m Rb=1.20m Kp=121 Cgdmax=2.5n Cgdmin=0.24n Cgs=2.7n Cjo=1.5n Is=9p tt=31n ksubthres=.1 mfg=International_Rectifier Vds=75 Ron=5.1m Qg=65n)