.model IRFH7932 VDMOS(Rg=0.7 Vto=2.2 Rd=1.5m Rs=0.0m Rb=3m Kp=125 Cgdmax=2.5n Cgdmin=130p Cgs=3.5n Cjo=1.2n Is=9p ksubthres=.1 mfg=International_Rectifier Vds=30 Ron=2.5m Qg=34n)