.model IRFH5220 VDMOS(Rg=2.3 Vto=5 Rd=50m Rs=0m Rb=1.0m Kp=7 Cgdmax=0.8n Cgdmin=0.02n Cgs=1n Cjo=0.7n Is=0.2p tt=39n ksubthres=.1 mfg=International_Rectifier Vds=200 Ron=80m Qg=20n)