.model IRFH7921 VDMOS(Rg=1.4 Vto=2.2 Rd=3.85m Rs=0.0m Rb=5.8m Kp=40 Cgdmax=0.45n Cgdmin=140p Cgs=0.99n Cjo=0.2n Is=1.5p ksubthres=.1 mfg=International_Rectifier Vds=30 Ron=7.1m Qg=9.3n)