.model IRFH5215 VDMOS(Rg=2.3 Vto=5 Rd=35m Rs=0m Rb=1.25m Kp=20 Cgdmax=0.8n Cgdmin=0.02n Cgs=1n Cjo=0.75n Is=1.3p tt=40n ksubthres=.1 mfg=International_Rectifier Vds=150 Ron=45.5m Qg=20n)