.model IRFL4310 VDMOS(Rg=3 Vto=3.8 Rd=80m Rs=60m Rb=100m Kp=10 Cgdmax=.3n Cgdmin=.1n Cgs=.6n Cjo=.2n Is=20p ksubthres=.1 mfg=International_Rectifier Vds=100 Ron=200m Qg=28n)