.model IRFML8244 VDMOS(Rg=1.6 Vto=2.3 Rd=3.7m Rs=0.0m Rb=7.5m Kp=8 Cgdmax=0.20n Cgdmin=25p Cgs=0.26n Cjo=0.15n Is=0.65p ksubthres=.1 mfg=International_Rectifier Vds=30 Ron=20m Qg=5.4n)