.model IRFP4668 VDMOS(Rg=2 Vto=4.85 Rd=1m Rs=1m Rb=1.2m Kp=33 lambda=0.01 Cgs=8n Cgdmin=500p Cgdmax=1n Cjo=4n Is=2n ksubthres=.1 mfg=International_Rectifier Vds=200 Ron=8m Qg=161n)