.model IRFP240 VDMOS(Rg=3 Vto=4 Rd=72m Rs=18m Rb=36m Kp=4.9 Lambda=.03 Cgdmax=1.34n Cgdmin=.1n Cgs=1.25n Cjo=1.25n Is=67p ksubthres=.1 mfg=International_Rectifier Vds=200 Ron=180m Qg=70n)