.model IRFP054V VDMOS(Rg=2.0 Vto=4 Rd=2.5m Rs=0.0m Rb=3.0m Kp=44 Cgdmax=5n Cgdmin=0.21n Cgs=4.0n Cjo=2.2n Is=10p tt=78n ksubthres=.1 mfg=International_Rectifier Vds=60 Ron=9m Qg=170n)