.model IRFP250N VDMOS(Rg=1.44 Vto=4.0 Rd=47m Rs=0m Rb=5.6m Kp=13 Cgdmax=3.9n Cgdmin=0.10n Cgs=1.9n Cjo=1.25n Is=5p tt=186n ksubthres=.1 mfg=International_Rectifier Vds=200 Ron=75m Qg=123n)