.model IRFP90N20D VDMOS(Rg=3 Vto=4.8 Rd=9.2m Rs=6.9m Rb=12m Kp=50 Cgdmax=4n Cgdmin=.5n Cgs=6n Cjo=2n Is=360p ksubthres=.1 mfg=International_Rectifier Vds=200 Ron=23m Qg=180n)