.model IRFP2907 VDMOS(Rg=3 Vto=4.15 Rd=1.8m Rs=.4m Rb=.9m Kp=130 Lambda=.10 Cgdmax=16.11n Cgdmin=1.2n Cgs=18n Cjo=18n Is=806p ksubthres=.1 mfg=International_Rectifier Vds=75 Ron=4.5m Qg=410n)