.model IRFR2307Z VDMOS(Rg=0.93 Vto=3.8 Rd=5.3m Rs=0.0m Rb=3.3m Kp=22 Cgdmax=2.8n Cgdmin=0.01n Cgs=2.7n Cjo=0.6n Is=5p tt=31n ksubthres=.1 mfg=International_Rectifier Vds=75 Ron=12.8m Qg=50n)