.model IRFR2905Z VDMOS(Rg=1.3 Vto=4 Rd=3.4m Rs=0.0m Rb=3.9m Kp=22 Cgdmax=1.8n Cgdmin=0.05n Cgs=1.2n Cjo=0.57n Is=5p tt=23n ksubthres=.1 mfg=International_Rectifier Vds=55 Ron=11.1m Qg=29n)