.model IRFR120Z VDMOS(Rg=3.65 Vto=4.0 Rd=50m Rs=0m Rb=12m Kp=1.75 Cgdmax=4.2n Cgdmin=0.050n Cgs=2.3n Cjo=65P Is=0.2p tt=24n ksubthres=.1 mfg=International_Rectifier Vds=200 Ron=150m Qg=6.9n)