.model IRFR2607Z VDMOS(Rg=1.74 Vto=4 Rd=8m Rs=0.0m Rb=5.0m Kp=18.75 Cgdmax=1.8n Cgdmin=0.05n Cgs=1.32n Cjo=0.22n Is=5p tt=30n ksubthres=.1 mfg=International_Rectifier Vds=75 Ron=17.6m Qg=34n)