.model IRFZ44V VDMOS(Rg=1.97 Vto=4 Rd=4.5m Rs=0.0m Rb=6.0m Kp=19 Cgdmax=3.2n Cgdmin=0.05n Cgs=1.6n Cjo=0.9n Is=0.5p tt=70n ksubthres=.1 mfg=International_Rectifier Vds=55 Ron=13.9m Qg=67n)