.model IRFZ46N VDMOS(Rg=2.0 Vto=4 Rd=3.8m Rs=0.0m Rb=6.0m Kp=19 Cgdmax=3n Cgdmin=0.01n Cgs=1.20n Cjo=0.9n Is=0.5p tt=67n ksubthres=.1 mfg=International_Rectifier Vds=55 Ron=12.8m Qg=72n)