.model IRFZ44N VDMOS(Rg=1.94 Vto=4 Rd=5.0m Rs=0.0m Rb=6.8m Kp=19 Cgdmax=2.0n Cgdmin=0.08n Cgs=1.4n Cjo=0.9n Is=1.5p tt=63n ksubthres=.1 mfg=International_Rectifier Vds=55 Ron=13.9m Qg=63n)