.model IRFZ48N VDMOS(Rg=2 Vto=4 Rd=3.3m Rs=0.0m Rb=5.0m Kp=22 Cgdmax=2.5n Cgdmin=0.1n Cgs=2.0n Cjo=1.25n Is=0.23p tt=68n ksubthres=.1 mfg=International_Rectifier Vds=55 Ron=14m Qg=81n)