.model IRL3915 VDMOS(Rg=3 Vto=1.9 Rd=5.6m Rs=4.2m Rb=7m Kp=60 lambda=.02 Cgdmax=2.4n Cgdmin=.4n Cgs=4.1n Cjo=1.22n Is=122p ksubthres=.1 mfg=International_Rectifier Vds=55 Ron=14m Qg=61n)