.model IRL530NS_L VDMOS(Rg=3 Vto=2.4 Rd=40m Rs=30m Rb=50m Kp=50 Cgdmax=4n Cgdmin=2n Cgs=1n Cjo=1.5n Is=68p ksubthres=.1 mfg=International_Rectifier Vds=100 Ron=100m Qg=34n)