.model IRLH5030 VDMOS(Rg=1.5 Vto=2 Rd=6.5m Rs=0.0m Rb=1.2m Kp=120 Cgdmax=3.75n Cgdmin=0.1n Cgs=3.3n Cjo=1.7n Is=60p tt=30n ksubthres=.1 mfg=International_Rectifier Vds=100 Ron=7.5m Qg=87n)