.model IRLHS6376 VDMOS(Rg=4.6 Vto=0.95 Rd=25m Rs=0.0m Rb=23m Kp=12.5 Cgdmax=0.35n Cgdmin=50p Cgs=0.025n Cjo=65Pn Is=10p ksubthres=.1 mfg=International_Rectifier Vds=30 Ron=48m Qg=2.8n)