.model IRLHM630 VDMOS(Rg=2.6 Vto=1 Rd=1.3m Rs=0.1m Rb=2.5m Kp=200 Cgdmax=3.5n Cgdmin=0.55n Cgs=2.0n Cjo=0.5n Is=700p ksubthres=.1 mfg=International_Rectifier Vds=30 Ron=2.8m Qg=41n)