.model IRLHS6342 VDMOS(Rg=2.1 Vto=0.95 Rd=7.25m Rs=0.0m Rb=4m Kp=60 Cgdmax=2.0n Cgdmin=20p Cgs=0.25n Cjo=0.15n Is=220p ksubthres=.1 mfg=International_Rectifier Vds=30 Ron=12m Qg=11n)