.model IRLH5036 VDMOS(Rg=1.2 Vto=2.48 Rd=2.82m Rs=0.0m Rb=1.3m Kp=150 Cgdmax=4.0n Cgdmin=0.20n Cgs=3.8n Cjo=1.7n Is=42p tt=28n ksubthres=.1 mfg=International_Rectifier Vds=60 Ron=3.7m Qg=90n)