.model IRLHS6242 VDMOS(Rg=2.1 Vto=1.0 Rd=4m Rs=0.0m Rb=4m Kp=53 Cgdmax=2.2n Cgdmin=20p Cgs=0.55n Cjo=0.2n Is=33p ksubthres=.1 mfg=International_Rectifier Vds=20 Ron=9.4m Qg=14n)