.model IRLML0040 VDMOS(Rg=1.1 Vto=2.45 Rd=0.1m Rs=0.0m Rb=12m Kp=11 Cgdmax=0.27n Cgdmin=35p Cgs=0.12n Cjo=90p Is=1.5p ksubthres=.1 mfg=International_Rectifier Vds=40 Ron=44m Qg=2.9n)