.model IRLML6344 VDMOS(Rg=1.7 Vto=0.95 Rd=12m Rs=0.0m Rb=16m Kp=28 Cgdmax=1n Cgdmin=20p Cgs=0.15n Cjo=0.10n Is=22p ksubthres=.1 mfg=International_Rectifier Vds=30 Ron=22m Qg=6.8n)