.model IRLML2803 VDMOS(Rg=3 Vto=2.9 Rd=.1 Rs=75m Rb=125m Kp=10 Cgdmax=.15n Cgdmin=.018n Cgs=.13n Cjo=.07n Is=7p ksubthres=.1 mfg=International_Rectifier Vds=30 Ron=250m Qg=3.3n)