.model IRLML6244 VDMOS(Rg=1.7 Vto=1 Rd=5.5m Rs=0.0m Rb=10m Kp=27 Cgdmax=1.5n Cgdmin=100p Cgs=0.27n Cjo=0.1n Is=20p ksubthres=.1 mfg=International_Rectifier Vds=20 Ron=16m Qg=8.9n)