.model IRLML6346 VDMOS(Rg=3.9 Vto=0.95 Rd=24m Rs=0.0m Rb=22m Kp=13 Cgdmax=0.25n Cgdmin=50p Cgs=0.02n Cjo=50p Is=10p ksubthres=.1 mfg=International_Rectifier Vds=30 Ron=48m Qg=2.9n)