.model IRLR2908 VDMOS(Rg=3 Vto=2.15 Rd=11.2m Rs=2.8m Rb=5.6m Kp=50. Lambda=.07 Cgdmax=.88n Cgdmin=.1n Cgs=2.44n Cjo=2.44n Is=44p ksubthres=.1 mfg=International_Rectifier Vds=80 Ron=28m Qg=22n)