.model IRLR3802 VDMOS(Rg=3 Vto=1.39 Rd=0.16188m Rs=0.5m Rb=5.75m Kp=56 Cgdmax=2.1n Cgdmin=.5n Cgs=2n Cjo=2.5n Is=2.7p ksubthres=.1 mfg=International_Rectifier Vds=12 Ron=6.5m Qg=27n)