.model IXTT170N10P VDMOS(mtriode=2.2 Rg=1 vto=4.9 Rd=1m Rs=4m Rb=1.7m Kp=48 Lambda=40m Cgdmin=100p Cgdmax=9n A=.2 Cgs=6n Cjo=12n M=0.5 VJ=0.7 Is=15p N=1 TT=0 ksubthres=.1 mfg=IXYS Vds=100 Ron=7m Qg=198n)