.model NDS9410A VDMOS(Rg=3 Rs=15m Rd=8m Vto=2.7 Kp=24.5 Cgdmax=950p Cgdmin=320p Cgs=1020p Cjo=940p a=.1 Is=.82p Rb=12m N=1.02 ksubthres=.1 mfg=Fairchild Vds=30 Ron=42m Qg=50n)