.model NTB52N10 VDMOS(Rg=3 Vto=3.9 Rd=12m Rs=9m Rb=15m Kp=70 Cgdmax=1.5n Cgdmin=.36n Cgs=2.4n Cjo=.75n Is=80p ksubthres=.1 mfg=Onsemi Vds=100 Ron=30m Qg=72n)