.model NTMD4N03R2 VDMOS(Rg=7 Vto=2.3 Rd=25m Rs=6m Rb=10m Kp=12 Cgdmax=.65n Cgdmin=.06n Cgs=.13n Cjo=.13n Is=32p ksubthres=.1 mfg=Onsemi Vds=30 Ron=48m Qg=8n)