.model PH2625L VDMOS(Rg=3 Vto=1.5 Rd=1.1m Rs=.8m Rb=1m Kp=104.6 Cgdmax=1.3n Cgdmin=.32n Cgs=2.1n Cjo=.64n Is=64p ksubthres=.1 mfg=NXP Vds=25 Ron=2.7m Qg=32n)