.model PH6325L VDMOS(Rg=3 Vto=1.5 Rd=2.5m Rs=1.9m Rb=3m Kp=97.4 Cgdmax=.5n Cgdmin=.13n Cgs=.9n Cjo=.26n Is=26p ksubthres=.1 mfg=NXP Vds=25 Ron=6.3m Qg=13n)