.model PHM21NQ15T VDMOS(Rg=3 Vto=3.3 Rd=22m Rs=5.5m Rb=28m Kp=50 lambda=.02 Cgdmax=.9n Cgdmin=.13n Cgs=1.5n Cjo=.4n Is=30p ksubthres=.1 mfg=NXP Vds=150 Ron=55m Qg=36n)