.model PSMN4R060YS VDMOS(Rg=0.68 Vto=3.67 Rd=2.4m Rs=100u Rb=400u Kp=190 Lambda=0 Cgdmin=159p Cgdmax=3.054n A=0.6 Cgs=3.26n Cjo=2.39n M=0.62 Is=2.57p VJ=0.5 N=1 TT=3n Fc=0.5 Bv=66 Ibv=250u Nbv=1 ksubthres=.1 mfg=NXP Vds=60 Ron=4.0m Qg=56n)