.model PSMN1R440YLD VDMOS(Rg=1.1 Vto=2.49 Rd=0.68m Rs=100u Rb=320u Kp=1320 Lambda=0 Cgdmin=287p Cgdmax=5.306n A=0.6 Cgs=5.33n Cjo=7.5n M=0.6 Is=2.07p VJ=0.83 N=1 TT=3n Fc=0.5 Bv=44 Ibv=250u Nbv=1 ksubthres=.1 mfg=NXP Vds=40 Ron=1.4m Qg=45n)