.model PSMN013100YSE VDMOS(Rg=0.654 Vto=4.18 Rd=9.4m Rs=100u Rb=748u Kp=81.2 Lambda=0 Cgdmin=191p Cgdmax=3740p A=0.6 Cgs=3.18n Cjo=1.176n M=0.66 Is=1.1p VJ=0.5 N=1 TT=3n Fc=0.5 Bv=110 Ibv=250u Nbv=1 ksubthres=.1 mfg=NXP Vds=100 Ron=13m Qg=75n)