.model RHK003N06 VDMOS(Rg=50 Vto=2.064 Rd=180m Rs=400m Rb=172.09m Kp=1.077 Lambda=50m Cgdmin=4p Cgdmax=80p A=0.9 Cgso=24p Is=1.5068p N=1.123 Cjo=18.958p M=478.12m Vj=793.7m TT=3.3n ksubthres=.1 mfg=Rohm Vds=60 Ron=700m Qg=3n)