.model RJK0305DPB VDMOS(Rg=.6 Vto=1.95 Rd=2.7m Rs=.7m Rb=1.3m Kp=40.8 Lambda=.07 Cgdmax=.96n Cgdmin=.05n Cgs=.98n Cjo=.98n Is=48p ksubthres=.1 mfg=Renesas Vds=30 Ron=6.7m Qg=8n)