.model RJK0651DPB VDMOS(Rg=1 Vto=2.2 Rd=7m Rs=0 Rb=12m Kp=110 mtriode=1 Lambda=.08 Cgdmin=50p Cgdmax=500p Cgs=2.5n Cjo=1n Is=200p N=1.2 ksubthres=.1 mfg=Renesas Vds=60 Ron=13m Qg=15n)