.model RJK0451DPB VDMOS(Rg=.7 Vto=2.31 Rd=2m Rs=1m Rb=.25m Kp=160 lambda=.05 mtriode=.6 Cgdmax=200p Cgdmin=100p Cgs=1n Cjo=1n Is=2p ksubthres=.1 mfg=Renesas Vds=40 Ron=5.5m Qg=14n)