.model RJK1051DPB VDMOS(Rg=1 Vto=2.4 Rd=10m Rs=20m Rb=2m Kp=300 mtriode=.5 Lambda=.3 Cgdmin=50p Cgdmax=850p Cgs=2n Cjo=2n Is=100p N=1.2 ksubthres=.1 mfg=Renesas Vds=100 Ron=30m Qg=15n)