.model Si1555DL_N VDMOS(Rg=3 Vto=1.1 Rd=200m Rs=150m Rb=250m Kp=2 Cgdmax=.1n Cgdmin=.005n Cgs=.01n Cjo=.01n Is=2p ksubthres=.1 mfg=Siliconix Vds=20 Ron=500m Qg=.8n)