.model Si1555DL_P VDMOS(pchan Rg=3 Vto=-.9 Rd=280m Rs=210m Rb=350m Kp=3 Cgdmax=.2n Cgdmin=.01n Cgs=.06n Cjo=.03n Is=3p ksubthres=.1 mfg=Siliconix Vds=-8 Ron=700m Qg=1.5n)