.model Si2318CDS VDMOS(Rg=3 Vto=2 Rd=16m Rs=16m Rb=15m Kp=22 lambda=.1 mtriode=2 Cgdmax=110p Cgdmin=20p Cgs=400p Cjo=400p Is=1.5p ksubthres=.1 mfg=Siliconix Vds=40 Ron=51m Qg=2.9n)