.model Si3440DV VDMOS(Rg=3 Vto=3.8 Rd=150m Rs=112.5m Rb=188m Kp=50 Cgdmax=.2n Cgdmin=.02n Cgs=.2n Cjo=.05n Is=11p ksubthres=.1 mfg=Siliconix Vds=150 Ron=375m Qg=5.4n)