.model Si3460DV VDMOS(Rg=3 Rd=12m Rs=9m Vto=1 Kp=100 Cgdmax=.5n Cgdmin=.07n Cgs=2n Cjo=.27n Is=27p Rb=15m ksubthres=.1 mfg=Siliconix Vds=20 Ron=30m Qg=13.5n)