.model SI3443DV VDMOS(pchan Rg=3 Rd=22m Rs=8m Vto=-1.05 Kp=12.2 Cgdmax=.32n Cgdmin=.16n cgs=1.1n Cjo=1n Is=.011nA Rb=.022 N=1.12 ksubthres=.1 mfg=Siliconix Vds=-20 Ron=58m Qg=8.5n)