.model Si4364DY VDMOS(Rg=3 Rd=2.2m Rs=1.7m Vto=2 Kp=99 Cgdmax=2.5n Cgdmin=.31n Cgs=4.1n Cjo=1.24n Is=124p Rb=2.8m ksubthres=.1 mfg=Siliconix Vds=30 Ron=5.5m Qg=62n)