.model Si4362DY VDMOS(Rg=3 Rd=2.5m Rs=1.9m Vto=2 Kp=98 Cgdmax=1.6n Cgdmin=.2n Cgs=2.7n Cjo=.8n Is=80p Rb=3.1m ksubthres=.1 mfg=Siliconix Vds=30 Ron=6.25m Qg=40n)