.model Si4442DY VDMOS(Rg=3 Rd=2m Rs=1.5m Vto=2 Kp=100 Cgdmax=1.4n Cgdmin=.18n Cgs=2.4n Cjo=.72n Is=72p Rb=2.5m ksubthres=.1 mfg=Siliconix Vds=30 Ron=5m Qg=36n)