.model Si4425BDY VDMOS(pchan Rg=3 Vto=-2.5 Rd=4.8m Rs=1.2m Rb=6m Kp=29 lambda=.03 Cgdmax=2.6n Cgdmin=.64n Cgs=2.8n Cjo=1n Is=120p ksubthres=.1 mfg=Siliconix Vds=-30 Ron=12m Qg=64n)