.model Si4427DY VDMOS(pchan Rg=3 Rd=4.8m Rs=3.6m Vto=-1 Kp=86 Cgdmax=1.9n Cgdmin=.24n Cgs=3.1n Cjo=.94n Is=94p Rb=6m ksubthres=.1 mfg=Siliconix Vds=-30 Ron=12m Qg=47n)