.model Si4465DY VDMOS(pchan Rg=3 Rd=3.6m Rs=2.7m Vto=-1 Kp=92 Cgdmax=3.2n Cgdmin=.4n Cgs=5.3n Cjo=1.6n Is=160p Rb=4.5m ksubthres=.1 mfg=Siliconix Vds=-8 Ron=9m Qg=80n)