.model Si4463DY VDMOS(pchan Rg=3 Rd=5.6m Rs=4.2m Vto=-1 Kp=82 Cgdmax=1.9n Cgdmin=.24n Cgs=3.2n Cjo=.96n Is=96p Rb=7m ksubthres=.1 mfg=Siliconix Vds=-20 Ron=14m Qg=48n)