.model Si4403DY VDMOS(pchan Rg=3 Rd=6.8m Rs=5.1m Vto=-1 Kp=76 Cgdmax=1.2n Cgdmin=.15n Cgs=2n Cjo=.61n Is=61p Rb=8.5m ksubthres=.1 mfg=Siliconix Vds=-20 Ron=17m Qg=30.5n)