.model Si4425DY VDMOS(pchan Rg=3 Rd=9.2m Rs=6.9m Vto=-1 Kp=64 Cgdmax=3n Cgdmin=.37n Cgs=4.9n Cjo=1.48n Is=148p Rb=11.5m ksubthres=.1 mfg=Siliconix Vds=-30 Ron=23m Qg=74n)