.model Si4486EY VDMOS(Rg=3 Rd=11.2m Rs=8.4m Vto=2 Kp=54 Cgdmax=1.4n Cgdmin=.18n Cgs=2.4n Cjo=.72n Is=72p Rb=14m ksubthres=.1 mfg=Siliconix Vds=100 Ron=28m Qg=36n)