.model Si4431DY VDMOS(pchan Rg=3 Rd=28m Rs=21m Vto=-1 Kp=10 Cgdmax=.9n Cgdmin=.11n Cgs=1.5n Cjo=.44n Is=44p Rb=35m ksubthres=.1 mfg=Siliconix Vds=-30 Ron=70m Qg=22n)