.model Si4450DY VDMOS(Rg=3 Rd=12m Rs=9m Vto=2 Kp=50 Cgdmax=1.2n Cgdmin=.16n Cgs=2.1n Cjo=.62n Is=62p Rb=15m ksubthres=.1 mfg=Siliconix Vds=60 Ron=30m Qg=31n)