.model Si4420DY VDMOS(Rg=1.5 Vto=2.65 Rd=3.4m Rs=.8m Rb=1.7m Kp=71.4 Lambda=.02 Cgdmax=1.1n Cgdmin=.1n Cgs=1.77n Cjo=1.77n Is=55p ksubthres=.1 mfg=Siliconix Vds=30 Ron=8.5m Qg=16n)