.model Si4490DY VDMOS(Rg=3 Vto=4 Rd=32m Rs=24m Rb=40m Kp=30 Cgdmax=1n Cgdmin=.08n Cgs=1.7n Cjo=.45n Is=68p ksubthres=.1 mfg=Siliconix Vds=200 Ron=80m Qg=34n)