.model Si4484EY VDMOS(Rg=3 Rd=16m Rs=12m Vto=2 Kp=30 Cgdmax=1n Cgdmin=.12n Cgs=1.6n Cjo=.48n Is=48p Rb=20m ksubthres=.1 mfg=Siliconix Vds=100 Ron=40m Qg=24n)