.model Si4488DY VDMOS(Rg=3 Rd=20m Rs=15m Vto=2 Kp=10 Cgdmax=1.2n Cgdmin=.15n Cgs=2n Cjo=.6n Is=60p Rb=25m ksubthres=.1 mfg=Siliconix Vds=150 Ron=50m Qg=30n)