.model Si4426DY VDMOS(Rg=3 Rd=10m Rs=7.5m Vto=2 Kp=60 Cgdmax=1n Cgdmin=.13n Cgs=1.7n Cjo=.5n Is=50p Rb=12.5m ksubthres=.1 mfg=Siliconix Vds=20 Ron=25m Qg=25n)