.model Si4542DY_P VDMOS(pchan Rg=3 Vto=-2.5 Rd=12.8m Rs=3.2m Rb=16m Kp=16 lambda=.01 Cgdmax=1n Cgdmin=.2n Cgs=2.1n Cjo=.64n Is=64p ksubthres=.1 mfg=Siliconix Vds=-30 Ron=32m Qg=32n)