.model Si4884DY VDMOS(Rg=3 Rd=6.4m Rs=4.8m Vto=2 Kp=78 Cgdmax=.6n Cgdmin=.08n Cgs=1n Cjo=.31n Is=30.6p Rb=8m ksubthres=.1 mfg=Siliconix Vds=30 Ron=16m Qg=15.3n)