.model Si4822DY VDMOS(Rg=3 Rd=6m Rs=4.5m Vto=2 Kp=80 Cgdmax=1.2n Cgdmin=.16n Cgs=2.1n Cjo=.62n Is=62p Rb=7.5m ksubthres=.1 mfg=Siliconix Vds=30 Ron=15m Qg=31n)