.model Si4864DY VDMOS(Rg=3 Rd=1.7m Rs=.5m mtriode=1.9 lambda=0.01 Vto=1.4 Kp=300 Cgdmax=6.5n Cgdmin=500p A=5 Cgs=4n Cjo=1.2n M=.3 Is=60p Rb=1.8m ksubthres=.1 mfg=Siliconix Vds=20 Ron=3.5m Qg=47n)