.model Si4850EY VDMOS(Rg=3 Rd=12.4m Rs=9.3m Vto=2 Kp=48 Cgdmax=.7n Cgdmin=.09n Cgs=1.2n Cjo=.36n Is=36p Rb=15.5m ksubthres=.1 mfg=Siliconix Vds=60 Ron=31m Qg=18n)