.model Si4816BDY_Q2 VDMOS(Kp=30.131 Rs=0.0001 Rd=0.0046 Rg=1.8 Vto=2.8 lambda=0.001 Cgdmax=700p Cgdmin=180p Cgs=1400p TT=36n Is=9.51E-10 N=1.158 Rb=0.009197 M=0.35 VJ=0.1 Cjo=1003.57pF mfg=Vishay Vds=30 Ron=0.0115 Qg=11.6n)