.model Si4842DY VDMOS(Rg=3 Rd=2.4m Rs=1.8m Vto=2 Kp=98 Cgdmax=1n Cgdmin=.13n Cgs=1.7n Cjo=.5n Is=50p Rb=3m ksubthres=.1 mfg=Siliconix Vds=30 Ron=6m Qg=25n)