.model Si4896DY VDMOS(Rg=3 Vto=2 Rd=8.8m Rs=6.6m Rb=11m Kp=66 Cgdmax=1.4n Cgdmin=.34n Cgs=2.3n Cjo=.68n Is=68p ksubthres=.1 mfg=Siliconix Vds=80 Ron=22m Qg=34n)