.model Si4872DY VDMOS(Rg=3 Rd=4m Rs=3m Vto=2 Kp=90 Cgdmax=1.1n Cgdmin=.14n Cgs=1.8n Cjo=.54n Is=54p Rb=5m ksubthres=.1 mfg=Siliconix Vds=30 Ron=10m Qg=27n)