.model Si4816BDY_1 VDMOS(Rg=3 Vto=2.3 Rd=7.6m Rs=1.9m Rb=10m Kp=30 lambda=.01 Cgdmax=.5n Cgdmin=.1n Cgs=.6n Cjo=.2n Is=16p ksubthres=.1 mfg=Vishay Vds=30 Ron=19m Qg=7.8n)