.model Si4882DY VDMOS(Rg=3 Rd=8m Rs=6m Vto=2 Kp=70 Cgdmax=.5n Cgdmin=.07n Cgs=.9n Cjo=.27n Is=27p Rb=10m ksubthres=.1 mfg=Siliconix Vds=30 Ron=20m Qg=13.5n)