.model Si4800DY VDMOS(Rg=3 Rd=7.2m Rs=5.4m Vto=2 Kp=74 Cgdmax=.3n Cgdmin=.04n Cgs=.6n Cjo=.17n Is=17.4p Rb=9m ksubthres=.1 mfg=Siliconix Vds=30 Ron=18m Qg=8.7n)