.model Si4816BDY_2 VDMOS(Rg=3 Vto=2.5 Rd=4.8m Rs=1.2m Rb=6m Kp=30 lambda=.01 Cgdmax=.4n Cgdmin=.15n Cgs=1n Cjo=.3n Is=23p ksubthres=.1 mfg=Vishay Vds=30 Ron=12m Qg=11.6n)