.model Si4836DY VDMOS(Rg=3 Rd=1.2m Rs=.9m Vto=2 Kp=104 Cgdmax=1.4n Cgdmin=.18n Cgs=2.4n Cjo=.72n Is=72p Rb=1.5m ksubthres=.1 mfg=Siliconix Vds=12 Ron=3m Qg=36n)