.model Si4894DY VDMOS(Rg=3 Rd=7.2m Rs=5.4m Vto=2 Kp=74 Cgdmax=.8n Cgdmin=.1n Cgs=1.3n Cjo=.4n Is=40p Rb=9m ksubthres=.1 mfg=Siliconix Vds=30 Ron=18m Qg=20n)