.model Si4840DY VDMOS(Rg=3 Vto=2.2 Rd=1m Rs=.9m Rb=5m Kp=50 lambda=.07 Cgdmax=.8n Cgdmin=.19n Cgs=2.2n Cjo=.8n Is=38p ksubthres=.1 mfg=Siliconix Vds=40 Ron=9m Qg=19n)