.model Si4886DY VDMOS(Rg=3 Rd=5.2m Rs=3.9m Vto=2 Kp=84 Cgdmax=.6n Cgdmin=.07n Cgs=1n Cjo=.29n Is=29p Rb=6.5m ksubthres=.1 mfg=Siliconix Vds=30 Ron=13m Qg=14.5n)