.model Si4835DY VDMOS(pchan Rg=3 Rd=13.2m Rs=9.9m Vto=-1 Kp=44 Cgdmax=.8n Cgdmin=.11n Cgs=1.4n Cjo=.42n Is=42p Rb=16.5m ksubthres=.1 mfg=Siliconix Vds=-30 Ron=33m Qg=21n)