.model Si4862DY VDMOS(Rg=3 Rd=1.3m Rs=1m Vto=2 Kp=103 Cgdmax=1.9n Cgdmin=.24n Cgs=3.1n Cjo=.94n Is=94p Rb=1.7m ksubthres=.1 mfg=Siliconix Vds=16 Ron=3.3m Qg=47n)