.model Si4876DY VDMOS(Rg=3 Rd=2m Rs=1.5m Vto=2 Kp=100 Cgdmax=2.2n Cgdmin=.28n Cgs=3.7n Cjo=1.1n Is=110p Rb=2.5m ksubthres=.1 mfg=Siliconix Vds=20 Ron=5m Qg=55n)