.model Si4920DY VDMOS(Rg=3 Vto=2.8 Rd=12m Rs=9m Rb=15m Kp=50 Cgdmax=1.2n Cgdmin=.1n Cgs=2n Cjo=.6n Is=60p ksubthres=.1 mfg=Siliconix Vds=30 Ron=30m Qg=30n)