.model Si4980DY VDMOS(Rg=3 Rd=38m Rs=28.5m Vto=2 Kp=9 Cgdmax=.6n Cgdmin=.08n Cgs=1n Cjo=.3n Is=30p Rb=47.5m ksubthres=.1 mfg=Siliconix Vds=80 Ron=95m Qg=15n)