.model Si4940DY VDMOS(Rg=3 Rd=20m Rs=15m Vto=2.7 Kp=15 Lambda=.02 Cgdmax=.4n Cgdmin=.05n Cgs=.6n Cjo=.18n Is=18p Rb=25m ksubthres=.1 mfg=Siliconix Vds=40 Ron=50m Qg=9n)