.model Si4913DY VDMOS(pchan Rg=1 Vto=-.9 Rd=6m Rs=6m Rb=10m Kp=100 Lambda=.02 Cgdmax=2n Cgdmin=200p Cgs=2n Cjo=1n Is=200p ksubthres=.1 mfg=Siliconix Vds=-20 Ron=15m Qg=43n)