.model Si5515_N VDMOS(Rg=3 Vto=.7 Rd=16m Rs=4m Rb=20m Kp=22 lambda=.05 Cgdmax=.3n Cgdmin=.08n Cgs=.5n Cjo=.2n Is=10p ksubthres=.1 mfg=Siliconix Vds=20 Ron=40m Qg=5n)