.model Si5902DC VDMOS(Rg=2 Vto=2.4 Rs=60m Rb=25m Kp=8 Cgs=200p Cgdmin=50p Cgdmax=175p Cjo=175p Is=.1p ksubthres=.1 mfg=Vishay Vds=30 Ron=143m Qg=5n)