.model Si7137DP VDMOS(pchan Rg=2 Rd=1.4m Rs=0 Vto=-1.2 Kp=160 lambda=.06 Cgdmax=7n Cgdmin=1n Cgs=30n Cjo=3n Is=30p Rb=1.5m mtriode=3.3 ksubthres=.1 mfg=Siliconix Vds=-20 Ron=2m Qg=188n)