.model Si7102DN VDMOS(mtriode=2.3 Rg=1.4 vto=.843 Rd=1.1m Rs=1.75m Rb=5m Kp=350 Lambda=10m Cgdmin=800p Cgdmax=4.6n A=3 Cgs=3.4n Cjo=1.3n M=0.5 VJ=0.7 Is=2n N=1.05 TT=0 ksubthres=.1 mfg=Vishay Vds=12 Ron=3.8m Qg=41n)