.model Si7106DN VDMOS(Rg=3 Vto=1.5 Rd=2.5m Rs=.6m Rb=3m Kp=105 lambda=.02 Cgdmax=1n Cgdmin=.2n Cgs=2.5n Cjo=1n Is=100p ksubthres=.1 mfg=Siliconix Vds=20 Ron=6.2m Qg=17.5n)