.model Si7224DN_1 VDMOS(Rg=3.3 Vto=2. Rd=14m Rs=3.5m Rb=7m Kp=22. Lambda=.06 Cgdmax=.44n Cgdmin=.001n Cgs=.49n Cjo=.49n Is=22p ksubthres=.1 mfg=Siliconix Vds=30 Ron=35m Qg=9.5n)