.model Si7234DP VDMOS(Rg=1 Vto=1.2 Rd=.25m Rs=.25m Rb=2.5m Kp=100 Lambda=.02 Cgdmax=3.5n Cgdmin=400p Cgs=4.1n Cjo=2n Is=90p ksubthres=.1 mfg=Siliconix Vds=12 Ron=3.5m Qg=80n)