.model Si7224DN_2 VDMOS(Rg=2.7 Vto=2.5 Rd=11.2m Rs=2.8m Rb=5.6m Kp=15.4 Lambda=.05 Cgdmax=.62n Cgdmin=.01n Cgs=.51n Cjo=.51n Is=31p ksubthres=.1 mfg=Siliconix Vds=30 Ron=28m Qg=12n)