.model Si7218DN VDMOS(Rg=3 Vto=2.5 Rd=10m Rs=2.5m Rb=13m Kp=20 lambda=.05 Cgdmax=.45n Cgdmin=.05n Cgs=.5n Cjo=.2n Is=10p ksubthres=.1 mfg=Siliconix Vds=30 Ron=25m Qg=5n)