.model Si7370DP VDMOS(Rg=3 Vto=3.8 Rd=4.8m Rs=3.6m Rb=6m Kp=86 Cgdmax=1.3n Cgdmin=.3n Cgs=2.7n Cjo=.7n Is=92p ksubthres=.1 mfg=Siliconix Vds=60 Ron=12m Qg=46n)