.model Si7368DP VDMOS(Rg=3 Vto=1.5 Rd=2.2m Rs=.6m Rb=3m Kp=50 lambda=.01 Cgdmax=1.7n Cgdmin=.25n Cgs=1.7n Cjo=.6n Is=34p ksubthres=.1 mfg=Siliconix Vds=20 Ron=5.5m Qg=17n)