.model Si7386DP VDMOS(Rg=1.7 Vto=2.57 Rd=3.5m Rs=1.4m Kp=58 Lambda=.014 Cgdmax=.67n Cgdmin=.1n Cgs=1.56n Cjo=1.56n Rb=6m Is=2.3p N=1.075 tt=25n ksubthres=.1 mfg=Siliconix Vds=30 Ron=7m Qg=11.5n)