.model Si7409DN VDMOS(pchan Rg=3 Vto=-0.8 Rd=7.6m Rs=5.7m Rb=10m Kp=72 Cgdmax=1n Cgdmin=.25n Cgs=1.7n Cjo=.5n Is=50p ksubthres=.1 mfg=Siliconix Vds=-30 Ron=19m Qg=25n)