.model Si7469DP VDMOS(pchan Rg=3 Vto=-2.5 Rd=10m Rs=2.5m Rb=13m Kp=50 lambda=.02 Cgdmax=2.7n Cgdmin=.6n Cgs=5n Cjo=1.4n Is=130p ksubthres=.1 mfg=Siliconix Vds=-80 Ron=25m Qg=55n)