.model SI7454DP VDMOS(Rg=3 Vto=3.8 Rd=13.6m Rs=10.2m Rb=17m Kp=42 Cgdmax=.5n Cgdmin=.1n Cgs=1.6n Cjo=.48n Is=48p ksubthres=.1 mfg=Siliconix Vds=100 Ron=34m Qg=24n)