.model Si7489DP VDMOS(Rg=3 Rd=31.2m Rs=1m Vto=-2.4 mtriode=2.2 Kp=35 lambda=0.1 Cgdmax=6n Cgdmin=10p A=1 Cgs=4n cjo=200p M=.3 VJ=.9 Is=3.6p Rb=5.5m mfg=Siliconix ksubthres=.1 Vds=-100 Ron=34m Qg=106n pchan)