.model Si7465DP VDMOS(pchan Rg=3 Vto=-2.4 Rd=25.6m Rs=6.4m Rb=32m Kp=16 lambda=.01 Cgdmax=.8n Cgdmin=.2n Cgs=1.3n Cjo=.41n Is=40p ksubthres=.1 mfg=Siliconix Vds=-60 Ron=64m Qg=26n)