.model Si7540DP_N VDMOS(Rg=3 Vto=1.4 Rd=8m Rs=6m Rb=10m Kp=70 Cgdmax=.5n Cgdmin=.12n Cgs=.8n Cjo=.24n Is=24p ksubthres=.1 mfg=Siliconix Vds=12 Ron=20m Qg=12n)