.model Si7540DP_P VDMOS(pchan Rg=3 Vto=-1.3 Rd=16m Rs=12m Rb=20m Kp=30 Cgdmax=.6n Cgdmin=.14n Cgs=.9n Cjo=.28n Is=28p ksubthres=.1 mfg=Siliconix Vds=-12 Ron=40m Qg=14n)