.model Si7686DP VDMOS(Rg=.8 Vto=2.77 Rd=4m Rs=1.6m Kp=101.2 Lambda=.01 Cgdmax=.8n Cgdmin=.1n Cgs=.65n Cjo=.6n Rb=2m Is=.92f N=.824 tt=60n ksubthres=.1 mfg=Siliconix Vds=30 Ron=8m Qg=17n)