.model Si7884DP VDMOS(Rg=3 Vto=2.2 Rd=.1m Rs=.7m Rb=4m Kp=50 lambda=.05 Cgdmax=1n Cgdmin=.3n Cgs=2.4n Cjo=.8n Is=37p ksubthres=.1 mfg=Siliconix Vds=40 Ron=7m Qg=18.5n)