.model Si7810DN VDMOS(Rg=3 Vto=3.9 Rd=24.8m Rs=18.6m Rb=31m Kp=10 Cgdmax=4n Cgdmin=.5n Cgs=.7n Cjo=1n Is=50p ksubthres=.1 mfg=Siliconix Vds=100 Ron=62m Qg=13.5n)