.model Si7802DN VDMOS(Rg=1.6 Vto=3.65 Rd=250m Rs=60m Rb=100m Kp=8. Lambda=.07 Cgdmax=.45n Cgdmin=.015n Cgs=.73n Cjo=.73n Is=22p ksubthres=.1 mfg=Siliconix Vds=250 Ron=435m Qg=14n)