.model Si7850DP VDMOS(Rg=3 Vto=3.1 Rd=10.4m Rs=7.8m Rb=13m Kp=58 Cgdmax=.5n Cgdmin=.1n Cgs=.9n Cjo=.25n Is=36p ksubthres=.1 mfg=Siliconix Vds=60 Ron=26m Qg=18n)