.model Si7852DP VDMOS(Rg=4 Vto=4.1 Rd=6.4m Rs=4.8m Rb=8m Kp=78 Cgdmax=1.4n Cgdmin=.1n Cgs=1.5n Cjo=.68n Is=68p ksubthres=.1 mfg=Siliconix Vds=80 Ron=16m Qg=34n)