.model Si7998DP_2 VDMOS(Rg=2 Vto=2.5 Rd=2.5m Rs=.5m Rb=2.8m Kp=150 lambda=0.07 Cgs=2.2n Cgdmin=200p Cgdmax=800p Cjo=1n Is=2p ksubthres=.1 mfg=Vishay Vds=30 Ron=5m Qg=32n)