.model Si9428DY VDMOS(Rg=3 Rd=12m Rs=9m Vto=2 Kp=50 Cgdmax=.8n Cgdmin=.11n Cgs=1.4n Cjo=.42n Is=42p Rb=15m ksubthres=.1 mfg=Siliconix Vds=20 Ron=30m Qg=21n)