.model Si9426DY VDMOS(Rg=3 Rd=5.2m Rs=3.9m Vto=2 Kp=84 Cgdmax=1.9n Cgdmin=.24n Cgs=3.1n Cjo=.94n Is=94p Rb=6.5m ksubthres=.1 mfg=Siliconix Vds=20 Ron=13m Qg=47n)