.model Si9407AEY VDMOS(pchan Rg=3 Rd=60m Rs=45m Vto=-1 Kp=5 Cgdmax=.7n Cgdmin=.09n Cgs=1.2n Cjo=.36n Is=36p Rb=75m ksubthres=.1 mfg=Siliconix Vds=-60 Ron=150m Qg=18n)