.model Si9420DY VDMOS(Rg=3 Rd=400m Rs=300m Vto=2 Kp=5 Cgdmax=.3n Cgdmin=.04n Cgs=.6n Cjo=.17n Is=17.2p Rb=500m ksubthres=.1 mfg=Siliconix Vds=200 Ron=1000m Qg=8.6n)