.model Si9434BDY VDMOS(pchan Rg=3 Vto=-.9 Rd=16m Rs=4m Rb=20m Kp=20 lambda=.01 Cgdmax=1n Cgdmin=.17n Cgs=.8n Cjo=.24n Is=30p ksubthres=.1 mfg=Siliconix Vds=-20 Ron=40m Qg=12n)