.model Si9410DY VDMOS(Rg=3 Rd=20m Rs=15m Vto=2 Kp=10 Cgdmax=1n Cgdmin=.12n Cgs=1.6n Cjo=.48n Is=48p Rb=25m ksubthres=.1 mfg=Siliconix Vds=30 Ron=50m Qg=24n)