.model Si9433DY VDMOS(pchan Rg=3 Rd=18m Rs=13.5m Vto=-1 Kp=20 Cgdmax=.8n Cgdmin=.1n Cgs=1.3n Cjo=.4n Is=40p Rb=22.5m ksubthres=.1 mfg=Siliconix Vds=-20 Ron=45m Qg=20n)