.model Si9804DY VDMOS(Rg=3 Rd=9.2m Rs=6.9m Vto=2 Kp=64 Cgdmax=.5n Cgdmin=.07n Cgs=.9n Cjo=.27n Is=27p Rb=11.5m ksubthres=.1 mfg=Siliconix Vds=25 Ron=23m Qg=13.5n)