.model Si9936DY VDMOS(Rg=3 Rd=10m Rs=2m Vto=2.3 Kp=11 Cgdmax=580p Cgdmin=20p Cgs=560p Cjo=800p Is=7.94p Rb=16.9m ksubthres=.1 mfg=Siliconix Vds=30 Ron=80m Qg=35n)