.model SiR158DP VDMOS(Rg=1 Vto=2.3 Rd=.6m Rs=.5m Rb=.5m Kp=250 mtriode=2 Lambda=.08 Cgdmin=300p Cgdmax=3n Cgs=4n Cjo=3n Is=200p N=1.2 ksubthres=.1 mfg=Siliconix Vds=30 Ron=2.3m Qg=87n)