.model SiR800DP VDMOS(Rg=1.2 Rd=1.65m Rs=0 Vto=1.2 Kp=220 lambda=.06 Cgdmax=3.5n Cgdmin=500p Cgs=3.5n Cjo=3n Is=200p Rb=1.5m mtriode=3 ksubthres=.1 mfg=Siliconix Vds=20 Ron=2.1m Qg=41n)