.model SiR870ADP VDMOS(Rg=3 Vto=2.9 Rd=3.2m Rs=1.5m Rb=1m Kp=100 Mtriode=1.85 Cgdmax=1.4n Cgdmin=70p Cgs=2.9n Cjo=3.6n m=.4 a=.7 Vj=.7 lambda=20m Is=3p ksubthres=.08 mfg=Siliconix Vds=100 Ron=5.5m Qg=53.5n)