.model SiZ300DT_1 VDMOS(Rg=2 Vto=2.6 Rb=4m lambda=.2 Kp=30 Rd=20m mtriode=2 Cgdmax=250p Cgdmin=25p Cgs=400p Cjo=400p Is=2p ksubthres=.1 mfg=Siliconix Vds=30 Ron=27m Qg=3.5n)