.model SiZ300DT_2 VDMOS(Rg=2 Vto=2.3 Rb=2.5m lambda=.15 Kp=50 Rs=5m Rd=5m mtriode=2 Cgdmax=500p Cgdmin=50p Cgs=800p Cjo=800p Is=2p ksubthres=.1 mfg=Siliconix Vds=30 Ron=14m Qg=6.8n)