.model SPA11N60C3 VDMOS(Rg=.86 Vto=4.08 Mtriode=.8 Rd=275m Rs=60m Rb=22m Kp=40 A=2.2 Cgdmax=2.7n Cgdmin=10p Cgs=1.5n Cjo=.7n Is=20p ksubthres=.1 mfg=Infineon Vds=650 Ron=340m Qg=45n)