.model STB120NF10 VDMOS(Rg=3 Vto=3.7 Rd=3.6m Rs=2.7m Rb=5m Kp=92 Cgdmax=4n Cgdmin=1n Cgs=4n Cjo=2n Is=200p ksubthres=.1 mfg=STMicroelectronics Vds=100 Ron=9m Qg=172n)