.model STD30NF06L VDMOS(Rg=3 Vto=1.7 Rd=11.2m Rs=2.8m Rb=14m Kp=25 lambda=.02 Cgdmax=.9n Cgdmin=.18n Cgs=2.5n Cjo=.8n Is=70p ksubthres=.1 mfg=STMicroelectronics Vds=60 Ron=28m Qg=23n)