.model STD95N04 VDMOS(Rg=3 Vto=3.68 Rd=2.7m Rs=1.1m Kp=51 Lambda=.11 Cgdmax=1.2n Cgdmin=.4n Cgs=1.47n Cjo=1.54n Vj=.51 m=.56 Rb=2m Is=79u N=2.325 tt=45n ksubthres=.1 mfg=STMicroelectronics Vds=40 Ron=5.4m Qg=40n)