.model STS12NF30L VDMOS(Rg=3 Vto=1.7 Rd=3.2m Rs=.8m Rb=4m Kp=25 Cgdmax=2n Cgdmin=.7n Cgs=2.3n Cjo=.7n Is=70p ksubthres=.1 mfg=STMicroelectronics Vds=30 Ron=8m Qg=35n)