.model STW11NM80 VDMOS(Rg=3 Vto=4.5 Rd=140m Rs=100m Rb=175m Kp=30 Cgdmax=.5n Cgdmin=.05n Cgs=2n Cjo=.3n Is=88p ksubthres=.1 mfg=STMicroelectronics Vds=800 Ron=350m Qg=44n)