.model SUD40N04-10A VDMOS(Rg=3 Vto=2.9 Rd=4m Rs=3m Rb=5m Kp=90 Cgdmax=1.4n Cgdmin=.2n Cgs=1.8n Cjo=.7n Is=70p ksubthres=.1 mfg=Siliconix Vds=40 Ron=10m Qg=35n)