.model SUD40N10-25 VDMOS(Rg=3 Rd=10m Rs=5m Vto=2.3 Kp=70 lambda=.01 Cgdmax=2n Cgdmin=100p Cgs=1.9n Cjo=1.25n Is=.0055n Rb=.005 ksubthres=.1 mfg=Siliconix Vds=100 Ron=25m Qg=60n)