.model SUM40N10-30 VDMOS(Rg=2 Vto=3.95 Rd=13m Rs=7m Rb=3m lambda=.05 Kp=90 mtriode=1.5 Cgdmax=1n Cgdmin=.1n Cgs=2n Cjo=1.5n Is=5p ksubthres=.1 mfg=Vishay Vds=100 Ron=34m Qg=35n)