.model SUM75N06-09L VDMOS(Rg=3 Vto=3 Rd=4m Rs=3m Rb=5m Kp=90 Cgdmax=1.7n Cgdmin=.42n Cgs=2.8n Cjo=.84n Is=84p ksubthres=.1 mfg=Siliconix Vds=60 Ron=10m Qg=42n)