.model SUM85N03-06P VDMOS(Rg=3 Vto=2.7 Rd=1.02m Rs=2.4m Rb=3m Kp=81 Mtriode=1.66 Cgdmax=1.3n Cgdmin=.2n Cgs=2.9n Cjo=1.4n m=.4 a=2 Vj=.7 lambda=1m Is=10p ksubthres=.1 mfg=Siliconix Vds=30 Ron=4.5m Qg=48n)