.model SUP90N08-8m2P VDMOS(Rg=2 Vto=4.3 Rd=5m Rs=1m Rb=6m Kp=35 lambda=0.03 Cgs=4n Cgdmin=250p Cgdmax=500p Cjo=2n Is=4p ksubthres=.1 mfg=Vishay Vds=75 Ron=8.2m Qg=58n)