.model uPA1707 VDMOS(Rg=3 Rd=5m Rs=3.8m Vto=2 Kp=85 Cgdmax=1n Cgdmin=.13n Cgs=1.7n Cjo=.52n Is=52p Rb=6.3m ksubthres=.1 mfg=NEC Vds=30 Ron=12.5m Qg=26n)