.model uPA1706 VDMOS(Rg=3 Rd=2.8m Rs=2.1m Vto=2 Kp=96 Cgdmax=2.2n Cgdmin=.28n Cgs=3.7n Cjo=1.12n Is=112p Rb=3.5m ksubthres=.1 mfg=NEC Vds=30 Ron=7m Qg=56n)