.model ZXM62P02E6 VDMOS(pchan Rg=2 Vto=-1 Rd=0 Rs=0 Rb=40m Kp=2 lambda=0.01 Cgs=300p Cgdmin=10p Cgdmax=500p Cjo=500p Is=3p ksubthres=.1 mfg=Zetex Vds=-20 Ron=.2 Qg=5.8n)